version 2
run PcapRecording-0-20230212-17:38:24-95329
attr configname PcapRecording
attr datetime 20230212-17:38:24
attr experiment PcapRecording
attr inifile omnetpp.ini
attr iterationvars ""
attr iterationvarsf ""
attr measurement ""
attr network voting.Simulation
attr processid 95329
attr repetition 0
attr replication #0
attr resultdir results
attr runnumber 0
attr seedset 0
param *.ethHost1.numApps 1
param *.ethHost1.app[0].typename "\"voting.VotingApp\""
param *.ethHost1.app[0].active true
param *.ethHost1.app[0].localAddress "\"10.0.0.1\""
param *.ethHost1.app[0].threePDownPort 5049
param *.ethHost1.app[0].threePUpPort 5051
param *.ethHost1.app[0].tThreePReceive 0.01s
param *.ethHost1.app[0].tCreateElection 0.01s
param *.ethHost1.app[0].tPlaceVote 0.05s
param *.ethHost2.numApps 1
param *.ethHost2.app[0].typename "\"voting.VotingApp\""
param *.ethHost2.app[0].active true
param *.ethHost2.app[0].localAddress "\"10.0.0.5\""
param *.ethHost2.app[0].threePDownPort 5049
param *.ethHost2.app[0].threePUpPort 5051
param *.ethHost2.app[0].tThreePReceive 0.01s
param *.ethHost2.app[0].tCreateElection -0.01s
param *.ethHost2.app[0].tPlaceVote 1.5s
param *.ethHost3.numApps 1
param *.ethHost3.app[0].typename "\"voting.VotingApp\""
param *.ethHost3.app[0].active true
param *.ethHost3.app[0].localAddress "\"10.0.0.9\""
param *.ethHost3.app[0].threePDownPort 5049
param *.ethHost3.app[0].threePUpPort 5051
param *.ethHost3.app[0].tThreePReceive 0.01s
param *.ethHost4.numApps 1
param *.ethHost4.app[0].typename "\"voting.VotingApp\""
param *.ethHost4.app[0].active true
param *.ethHost4.app[0].localAddress "\"10.0.0.13\""
param *.ethHost4.app[0].threePDownPort 5049
param *.ethHost4.app[0].threePUpPort 5051
param *.ethHost4.app[0].tThreePReceive 0.01s
param **.crcMode "\"computed\""
param **.fcsMode "\"computed\""
param *.ethHost1.numPcapRecorders 1
param *.ethHost1.pcapRecorder[*].pcapLinkType 101
param *.ethHost1.pcapRecorder[*].pcapFile "\"results/ethHost1.ip.pcap\""
param *.ethHost1.pcapRecorder[*].moduleNamePatterns "\"ipv4\""
param *.ethHost1.pcapRecorder[*].dumpProtocols "\"ipv4\""
param *.ethHost2.numPcapRecorders 1
param *.ethHost2.pcapRecorder[*].pcapLinkType 101
param *.ethHost2.pcapRecorder[*].pcapFile "\"results/ethHost2.ip.pcap\""
param *.ethHost2.pcapRecorder[*].moduleNamePatterns "\"ipv4\""
param *.ethHost2.pcapRecorder[*].dumpProtocols "\"ipv4\""
param *.ethHost3.numPcapRecorders 1
param *.ethHost3.pcapRecorder[*].pcapLinkType 101
param *.ethHost3.pcapRecorder[*].pcapFile "\"results/ethHost3.ip.pcap\""
param *.ethHost3.pcapRecorder[*].moduleNamePatterns "\"ipv4\""
param *.ethHost3.pcapRecorder[*].dumpProtocols "\"ipv4\""
param *.ethHost4.numPcapRecorders 1
param *.ethHost4.pcapRecorder[*].pcapLinkType 101
param *.ethHost4.pcapRecorder[*].pcapFile "\"results/ethHost4.ip.pcap\""
param *.ethHost4.pcapRecorder[*].moduleNamePatterns "\"ipv4\""
param *.ethHost4.pcapRecorder[*].dumpProtocols "\"ipv4\""
param *.router1.numPcapRecorders 2
param *.router1.pcapRecorder[0].pcapLinkType 204
param *.router1.pcapRecorder[0].moduleNamePatterns "\"ppp[*]\""
param *.router1.pcapRecorder[0].pcapFile "\"results/router1.ppp.pcap\""
param *.router1.pcapRecorder[1].pcapLinkType 1
param *.router1.pcapRecorder[1].pcapFile "\"results/router1.eth.pcap\""
param *.router1.pcapRecorder[1].moduleNamePatterns "\"eth[*]\""
param *.router2.numPcapRecorders 1
param *.router2.pcapRecorder[*].pcapLinkType 1
param *.router2.pcapRecorder[*].moduleNamePatterns "\"eth[*]\""
param *.router2.pcapRecorder[*].pcapFile "\"results/router2.tcpdata.pcap\""
param *.router2.pcapRecorder[*].packetDataFilter "\"*Ipv4Header and totalLengthField=~576*\""
param **.pcapRecorder[*].verbose true
param **.pcapRecorder[*].alwaysFlush true
param *.visualizer.*.numDataLinkVisualizers 2
param *.visualizer.*.numInterfaceTableVisualizers 2
param *.visualizer.*.dataLinkVisualizer[0].displayLinks true
param *.visualizer.*.dataLinkVisualizer[0].packetFilter "\"not *ping*\""
param *.visualizer.*.physicalLinkVisualizer[*].displayLinks true
param *.visualizer.*.interfaceTableVisualizer[0].displayInterfaceTables true
param *.visualizer.*.interfaceTableVisualizer[0].format "\"%N\""
param *.visualizer.*.interfaceTableVisualizer[1].displayInterfaceTables true
param *.visualizer.*.interfaceTableVisualizer[1].format "\"%a\""
param *.visualizer.*.interfaceTableVisualizer[1].displayWiredInterfacesAtConnections false
param *.visualizer.*.transportConnectionVisualizer[*].displayTransportConnections true
param *.visualizer.*.dataLinkVisualizer[1].displayLinks true
param *.visualizer.*.dataLinkVisualizer[1].packetFilter "\"*ping*\""
param *.visualizer.*.dataLinkVisualizer[1].lineColor "\"red\""
param *.visualizer.*.infoVisualizer[*].modules "\"*.*.pcapRecorder[*]\""
param *.visualizer.*.infoVisualizer[*].format "\"%t\""

vector 0 Simulation.router1.ppp[0].ppp transmissionState:vector ETV
attr interpolationmode sample-hold
attr source transmissionStateChanged
attr title "tx state, vector"
vector 1 Simulation.router1.ppp[1].ppp transmissionState:vector ETV
attr interpolationmode sample-hold
attr source transmissionStateChanged
attr title "tx state, vector"
vector 2 Simulation.router1.ppp[2].ppp transmissionState:vector ETV
attr interpolationmode sample-hold
attr source transmissionStateChanged
attr title "tx state, vector"
vector 3 Simulation.router2.ppp[0].ppp transmissionState:vector ETV
attr interpolationmode sample-hold
attr source transmissionStateChanged
attr title "tx state, vector"
vector 4 Simulation.router2.ppp[1].ppp transmissionState:vector ETV
attr interpolationmode sample-hold
attr source transmissionStateChanged
attr title "tx state, vector"
vector 5 Simulation.router2.ppp[2].ppp transmissionState:vector ETV
attr interpolationmode sample-hold
attr source transmissionStateChanged
attr title "tx state, vector"
vector 6 Simulation.router3.ppp[0].ppp transmissionState:vector ETV
attr interpolationmode sample-hold
attr source transmissionStateChanged
attr title "tx state, vector"
vector 7 Simulation.router3.ppp[1].ppp transmissionState:vector ETV
attr interpolationmode sample-hold
attr source transmissionStateChanged
attr title "tx state, vector"
vector 8 Simulation.router3.ppp[2].ppp transmissionState:vector ETV
attr interpolationmode sample-hold
attr source transmissionStateChanged
attr title "tx state, vector"
vector 9 Simulation.router4.ppp[0].ppp transmissionState:vector ETV
attr interpolationmode sample-hold
attr source transmissionStateChanged
attr title "tx state, vector"
vector 10 Simulation.router4.ppp[1].ppp transmissionState:vector ETV
attr interpolationmode sample-hold
attr source transmissionStateChanged
attr title "tx state, vector"
vector 11 Simulation.router4.ppp[2].ppp transmissionState:vector ETV
attr interpolationmode sample-hold
attr source transmissionStateChanged
attr title "tx state, vector"
vector 12 Simulation.ethHost1.app[0] packetSent:vector(packetBytes) ETV
attr interpolationmode none
attr source packetSent
attr title "packets sent, vector(packetBytes)"
vector 13 Simulation.ethHost1.tcp.conn-32 tcpRcvQueueBytes:vector ETV
attr interpolationmode sample-hold
vector 14 Simulation.ethHost1.tcp.conn-32 rcvAdv:vector ETV
attr interpolationmode sample-hold
vector 15 Simulation.ethHost1.tcp.conn-32 rcvWnd:vector ETV
attr interpolationmode sample-hold
vector 16 Simulation.ethHost1.tcp.conn-32 sndAck:vector ETV
attr interpolationmode sample-hold
vector 17 Simulation.ethHost1.ipv4.arp arpRequestSent:vector(packetBytes) ETV
attr source arpRequestSent
attr title "ARP request sent, vector(packetBytes)"
vector 18 Simulation.ethHost1.eth[0].encap encapPk:vector(packetBytes) ETV
attr interpolationmode none
attr source encapPk
attr title "packets encapsulated, vector(packetBytes)"
vector 19 Simulation.ethHost1.eth[0].mac packetReceivedFromUpper:vector(packetBytes) ETV
attr interpolationmode none
attr source packetReceivedFromUpper
attr title "packet bytes from higher layer, vector(packetBytes)"
vector 20 Simulation.ethHost1.eth[0].mac.queue packetPushed:vector(packetBytes) ETV
attr interpolationmode none
attr title "packet pushed, vector(packetBytes)"
vector 21 Simulation.ethHost1.eth[0].mac.queue queueLength:vector ETV
attr interpolationmode sample-hold
attr source "count(packetPushed) - count(packetPopped) - count(packetRemoved) - count(packetDropped)"
attr title "queue length, vector"
vector 22 Simulation.ethHost1.eth[0].mac.queue packetPopped:vector(packetBytes) ETV
attr interpolationmode none
attr title "packet popped, vector(packetBytes)"
vector 23 Simulation.ethHost1.eth[0].mac.queue queueingTime:vector ETV
attr interpolationmode none
attr source queueingTime(packetPopped)
attr title "queueing times, vector"
attr unit s
vector 24 Simulation.ethHost1.eth[0].mac txPk:vector(packetBytes) ETV
attr interpolationmode none
attr source packetSentToLower
attr title "packets transmitted, vector(packetBytes)"
vector 25 Simulation.router1.eth[0].mac rxPkOk:vector(packetBytes) ETV
attr interpolationmode none
attr source rxPkOk
attr title "packets received OK, vector(packetBytes)"
vector 26 Simulation.router1.eth[0].mac passedUpPk:vector(packetBytes) ETV
attr interpolationmode none
attr source packetSentToUpper
attr title "packets passed to higher layer, vector(packetBytes)"
vector 27 Simulation.router1.eth[0].encap decapPk:vector(packetBytes) ETV
attr interpolationmode none
attr source decapPk
attr title "packets decapsulated, vector(packetBytes)"
vector 28 Simulation.router1.ipv4.arp arpReplySent:vector(packetBytes) ETV
attr source arpReplySent
attr title "ARP replies sent, vector(packetBytes)"
vector 29 Simulation.router1.eth[0].encap encapPk:vector(packetBytes) ETV
attr interpolationmode none
attr source encapPk
attr title "packets encapsulated, vector(packetBytes)"
vector 30 Simulation.router1.eth[0].mac packetReceivedFromUpper:vector(packetBytes) ETV
attr interpolationmode none
attr source packetReceivedFromUpper
attr title "packet bytes from higher layer, vector(packetBytes)"
vector 31 Simulation.router1.eth[0].mac.queue packetPushed:vector(packetBytes) ETV
attr interpolationmode none
attr title "packet pushed, vector(packetBytes)"
vector 32 Simulation.router1.eth[0].mac.queue queueLength:vector ETV
attr interpolationmode sample-hold
attr source "count(packetPushed) - count(packetPopped) - count(packetRemoved) - count(packetDropped)"
attr title "queue length, vector"
vector 33 Simulation.router1.eth[0].mac.queue packetPopped:vector(packetBytes) ETV
attr interpolationmode none
attr title "packet popped, vector(packetBytes)"
vector 34 Simulation.router1.eth[0].mac.queue queueingTime:vector ETV
attr interpolationmode none
attr source queueingTime(packetPopped)
attr title "queueing times, vector"
attr unit s
vector 35 Simulation.router1.eth[0].mac txPk:vector(packetBytes) ETV
attr interpolationmode none
attr source packetSentToLower
attr title "packets transmitted, vector(packetBytes)"
vector 36 Simulation.ethHost1.eth[0].mac rxPkOk:vector(packetBytes) ETV
attr interpolationmode none
attr source rxPkOk
attr title "packets received OK, vector(packetBytes)"
vector 37 Simulation.ethHost1.eth[0].mac passedUpPk:vector(packetBytes) ETV
attr interpolationmode none
attr source packetSentToUpper
attr title "packets passed to higher layer, vector(packetBytes)"
vector 38 Simulation.ethHost1.eth[0].encap decapPk:vector(packetBytes) ETV
attr interpolationmode none
attr source decapPk
attr title "packets decapsulated, vector(packetBytes)"
vector 39 Simulation.router1.ppp[0].ppp rcvdPkFromHl:vector(packetBytes) ETV
attr interpolationmode none
attr source packetReceivedFromUpper
attr title "packets received from higher layer, vector(packetBytes)"
vector 40 Simulation.router1.ppp[0].ppp.queue packetPushed:vector(packetBytes) ETV
attr interpolationmode none
attr title "packet pushed, vector(packetBytes)"
vector 41 Simulation.router1.ppp[0].ppp.queue queueLength:vector ETV
attr interpolationmode sample-hold
attr source "count(packetPushed) - count(packetPopped) - count(packetRemoved) - count(packetDropped)"
attr title "queue length, vector"
vector 42 Simulation.router1.ppp[0].ppp.queue packetPopped:vector(packetBytes) ETV
attr interpolationmode none
attr title "packet popped, vector(packetBytes)"
vector 43 Simulation.router1.ppp[0].ppp.queue queueingTime:vector ETV
attr interpolationmode none
attr source queueingTime(packetPopped)
attr title "queueing times, vector"
attr unit s
vector 44 Simulation.router1.ppp[0].ppp txPk:vector(packetBytes) ETV
attr interpolationmode none
attr source packetSentToLower
attr title "packets transmitted, vector(packetBytes)"
vector 45 Simulation.router2.ppp[0].ppp rxPkOk:vector(packetBytes) ETV
attr interpolationmode none
attr source rxPkOk
attr title "packets received OK, vector(packetBytes)"
vector 46 Simulation.router2.ppp[0].ppp passedUpPk:vector(packetBytes) ETV
attr interpolationmode none
attr source packetSentToUpper
attr title "packets passed to higher layer, vector(packetBytes)"
vector 47 Simulation.router2.ipv4.arp arpRequestSent:vector(packetBytes) ETV
attr source arpRequestSent
attr title "ARP request sent, vector(packetBytes)"
vector 48 Simulation.router2.eth[0].encap encapPk:vector(packetBytes) ETV
attr interpolationmode none
attr source encapPk
attr title "packets encapsulated, vector(packetBytes)"
vector 49 Simulation.router2.eth[0].mac packetReceivedFromUpper:vector(packetBytes) ETV
attr interpolationmode none
attr source packetReceivedFromUpper
attr title "packet bytes from higher layer, vector(packetBytes)"
vector 50 Simulation.router2.eth[0].mac.queue packetPushed:vector(packetBytes) ETV
attr interpolationmode none
attr title "packet pushed, vector(packetBytes)"
vector 51 Simulation.router2.eth[0].mac.queue queueLength:vector ETV
attr interpolationmode sample-hold
attr source "count(packetPushed) - count(packetPopped) - count(packetRemoved) - count(packetDropped)"
attr title "queue length, vector"
vector 52 Simulation.router2.eth[0].mac.queue packetPopped:vector(packetBytes) ETV
attr interpolationmode none
attr title "packet popped, vector(packetBytes)"
vector 53 Simulation.router2.eth[0].mac.queue queueingTime:vector ETV
attr interpolationmode none
attr source queueingTime(packetPopped)
attr title "queueing times, vector"
attr unit s
vector 54 Simulation.router2.eth[0].mac txPk:vector(packetBytes) ETV
attr interpolationmode none
attr source packetSentToLower
attr title "packets transmitted, vector(packetBytes)"
vector 55 Simulation.ethHost2.eth[0].mac rxPkOk:vector(packetBytes) ETV
attr interpolationmode none
attr source rxPkOk
attr title "packets received OK, vector(packetBytes)"
vector 56 Simulation.ethHost2.eth[0].mac passedUpPk:vector(packetBytes) ETV
attr interpolationmode none
attr source packetSentToUpper
attr title "packets passed to higher layer, vector(packetBytes)"
vector 57 Simulation.ethHost2.eth[0].encap decapPk:vector(packetBytes) ETV
attr interpolationmode none
attr source decapPk
attr title "packets decapsulated, vector(packetBytes)"
vector 58 Simulation.ethHost2.ipv4.arp arpReplySent:vector(packetBytes) ETV
attr source arpReplySent
attr title "ARP replies sent, vector(packetBytes)"
vector 59 Simulation.ethHost2.eth[0].encap encapPk:vector(packetBytes) ETV
attr interpolationmode none
attr source encapPk
attr title "packets encapsulated, vector(packetBytes)"
vector 60 Simulation.ethHost2.eth[0].mac packetReceivedFromUpper:vector(packetBytes) ETV
attr interpolationmode none
attr source packetReceivedFromUpper
attr title "packet bytes from higher layer, vector(packetBytes)"
vector 61 Simulation.ethHost2.eth[0].mac.queue packetPushed:vector(packetBytes) ETV
attr interpolationmode none
attr title "packet pushed, vector(packetBytes)"
vector 62 Simulation.ethHost2.eth[0].mac.queue queueLength:vector ETV
attr interpolationmode sample-hold
attr source "count(packetPushed) - count(packetPopped) - count(packetRemoved) - count(packetDropped)"
attr title "queue length, vector"
vector 63 Simulation.ethHost2.eth[0].mac.queue packetPopped:vector(packetBytes) ETV
attr interpolationmode none
attr title "packet popped, vector(packetBytes)"
vector 64 Simulation.ethHost2.eth[0].mac.queue queueingTime:vector ETV
attr interpolationmode none
attr source queueingTime(packetPopped)
attr title "queueing times, vector"
attr unit s
vector 65 Simulation.ethHost2.eth[0].mac txPk:vector(packetBytes) ETV
attr interpolationmode none
attr source packetSentToLower
attr title "packets transmitted, vector(packetBytes)"
vector 66 Simulation.router2.eth[0].mac rxPkOk:vector(packetBytes) ETV
attr interpolationmode none
attr source rxPkOk
attr title "packets received OK, vector(packetBytes)"
vector 67 Simulation.router2.eth[0].mac passedUpPk:vector(packetBytes) ETV
attr interpolationmode none
attr source packetSentToUpper
attr title "packets passed to higher layer, vector(packetBytes)"
vector 68 Simulation.router2.eth[0].encap decapPk:vector(packetBytes) ETV
attr interpolationmode none
attr source decapPk
attr title "packets decapsulated, vector(packetBytes)"
vector 69 Simulation.ethHost2.tcp.conn-27 rcvSeq:vector ETV
attr interpolationmode sample-hold
vector 70 Simulation.ethHost2.tcp.conn-27 rcvAck:vector ETV
attr interpolationmode sample-hold
vector 71 Simulation.ethHost2.tcp.conn-33 rcvAdv:vector ETV
attr interpolationmode sample-hold
vector 72 Simulation.ethHost2.tcp.conn-33 sndWnd:vector ETV
attr interpolationmode sample-hold
vector 73 Simulation.ethHost2.tcp.conn-33 tcpRcvQueueBytes:vector ETV
attr interpolationmode sample-hold
vector 74 Simulation.ethHost2.tcp.conn-33 rcvWnd:vector ETV
attr interpolationmode sample-hold
vector 75 Simulation.ethHost2.tcp.conn-33 sndAck:vector ETV
attr interpolationmode sample-hold
vector 76 Simulation.router2.ppp[0].ppp rcvdPkFromHl:vector(packetBytes) ETV
attr interpolationmode none
attr source packetReceivedFromUpper
attr title "packets received from higher layer, vector(packetBytes)"
vector 77 Simulation.router2.ppp[0].ppp.queue packetPushed:vector(packetBytes) ETV
attr interpolationmode none
attr title "packet pushed, vector(packetBytes)"
vector 78 Simulation.router2.ppp[0].ppp.queue queueLength:vector ETV
attr interpolationmode sample-hold
attr source "count(packetPushed) - count(packetPopped) - count(packetRemoved) - count(packetDropped)"
attr title "queue length, vector"
vector 79 Simulation.router2.ppp[0].ppp.queue packetPopped:vector(packetBytes) ETV
attr interpolationmode none
attr title "packet popped, vector(packetBytes)"
vector 80 Simulation.router2.ppp[0].ppp.queue queueingTime:vector ETV
attr interpolationmode none
attr source queueingTime(packetPopped)
attr title "queueing times, vector"
attr unit s
vector 81 Simulation.router2.ppp[0].ppp txPk:vector(packetBytes) ETV
attr interpolationmode none
attr source packetSentToLower
attr title "packets transmitted, vector(packetBytes)"
vector 82 Simulation.router1.ppp[0].ppp rxPkOk:vector(packetBytes) ETV
attr interpolationmode none
attr source rxPkOk
attr title "packets received OK, vector(packetBytes)"
vector 83 Simulation.router1.ppp[0].ppp passedUpPk:vector(packetBytes) ETV
attr interpolationmode none
attr source packetSentToUpper
attr title "packets passed to higher layer, vector(packetBytes)"
vector 84 Simulation.ethHost1.tcp.conn-32 rcvSeq:vector ETV
attr interpolationmode sample-hold
vector 85 Simulation.ethHost1.tcp.conn-32 rcvAck:vector ETV
attr interpolationmode sample-hold
vector 86 Simulation.ethHost1.tcp.conn-32 sndWnd:vector ETV
attr interpolationmode sample-hold
vector 87 Simulation.ethHost1.tcp.conn-32 sndNxt:vector ETV
attr interpolationmode sample-hold
vector 88 Simulation.ethHost1.tcp.conn-32 unacked:vector ETV
attr interpolationmode sample-hold
vector 89 Simulation.ethHost2.tcp.conn-33 rcvSeq:vector ETV
attr interpolationmode sample-hold
vector 90 Simulation.ethHost2.tcp.conn-33 rcvAck:vector ETV
attr interpolationmode sample-hold
vector 91 Simulation.ethHost2.tcp.conn-33 unacked:vector ETV
attr interpolationmode sample-hold
vector 92 Simulation.ethHost2.tcp.conn-33 cwnd:vector ETV
attr interpolationmode sample-hold
vector 93 Simulation.ethHost2.tcp.conn-33 ssthresh:vector ETV
attr interpolationmode sample-hold
vector 94 Simulation.ethHost2.tcp.conn-33 dupAcks:vector ETV
attr interpolationmode sample-hold
vector 95 Simulation.ethHost2.app[0] packetSent:vector(packetBytes) ETV
attr interpolationmode none
attr source packetSent
attr title "packets sent, vector(packetBytes)"
vector 96 Simulation.ethHost2.app[0] packetReceived:vector(packetBytes) ETV
attr interpolationmode none
attr source packetReceived
attr title "packets received, vector(packetBytes)"
vector 97 Simulation.ethHost1.tcp.conn-32 rtt:vector ETV
attr interpolationmode sample-hold
vector 98 Simulation.ethHost1.tcp.conn-32 srtt:vector ETV
attr interpolationmode sample-hold
vector 99 Simulation.ethHost1.tcp.conn-32 rttvar:vector ETV
attr interpolationmode sample-hold
vector 100 Simulation.ethHost1.tcp.conn-32 rto:vector ETV
attr interpolationmode sample-hold
vector 101 Simulation.ethHost1.tcp.conn-32 cwnd:vector ETV
attr interpolationmode sample-hold
vector 102 Simulation.ethHost1.tcp.conn-32 ssthresh:vector ETV
attr interpolationmode sample-hold
vector 103 Simulation.ethHost1.tcp.conn-32 dupAcks:vector ETV
attr interpolationmode sample-hold
vector 104 Simulation.ethHost1.app[0] packetReceived:vector(packetBytes) ETV
attr interpolationmode none
attr source packetReceived
attr title "packets received, vector(packetBytes)"
vector 105 Simulation.ethHost2.tcp.conn-33 rtt:vector ETV
attr interpolationmode sample-hold
vector 106 Simulation.ethHost2.tcp.conn-33 srtt:vector ETV
attr interpolationmode sample-hold
vector 107 Simulation.ethHost2.tcp.conn-33 rttvar:vector ETV
attr interpolationmode sample-hold
vector 108 Simulation.ethHost2.tcp.conn-33 rto:vector ETV
attr interpolationmode sample-hold
vector 109 Simulation.ethHost2.tcp.conn-35 tcpRcvQueueBytes:vector ETV
attr interpolationmode sample-hold
vector 110 Simulation.ethHost2.tcp.conn-35 rcvAdv:vector ETV
attr interpolationmode sample-hold
vector 111 Simulation.ethHost2.tcp.conn-35 rcvWnd:vector ETV
attr interpolationmode sample-hold
vector 112 Simulation.ethHost2.tcp.conn-35 sndAck:vector ETV
attr interpolationmode sample-hold
vector 113 Simulation.router2.ppp[1].ppp rcvdPkFromHl:vector(packetBytes) ETV
attr interpolationmode none
attr source packetReceivedFromUpper
attr title "packets received from higher layer, vector(packetBytes)"
vector 114 Simulation.router2.ppp[1].ppp.queue packetPushed:vector(packetBytes) ETV
attr interpolationmode none
attr title "packet pushed, vector(packetBytes)"
vector 115 Simulation.router2.ppp[1].ppp.queue queueLength:vector ETV
attr interpolationmode sample-hold
attr source "count(packetPushed) - count(packetPopped) - count(packetRemoved) - count(packetDropped)"
attr title "queue length, vector"
vector 116 Simulation.router2.ppp[1].ppp.queue packetPopped:vector(packetBytes) ETV
attr interpolationmode none
attr title "packet popped, vector(packetBytes)"
vector 117 Simulation.router2.ppp[1].ppp.queue queueingTime:vector ETV
attr interpolationmode none
attr source queueingTime(packetPopped)
attr title "queueing times, vector"
attr unit s
vector 118 Simulation.router2.ppp[1].ppp txPk:vector(packetBytes) ETV
attr interpolationmode none
attr source packetSentToLower
attr title "packets transmitted, vector(packetBytes)"
vector 119 Simulation.router3.ppp[1].ppp rxPkOk:vector(packetBytes) ETV
attr interpolationmode none
attr source rxPkOk
attr title "packets received OK, vector(packetBytes)"
vector 120 Simulation.router3.ppp[1].ppp passedUpPk:vector(packetBytes) ETV
attr interpolationmode none
attr source packetSentToUpper
attr title "packets passed to higher layer, vector(packetBytes)"
vector 121 Simulation.router3.ipv4.arp arpRequestSent:vector(packetBytes) ETV
attr source arpRequestSent
attr title "ARP request sent, vector(packetBytes)"
vector 122 Simulation.router3.eth[0].encap encapPk:vector(packetBytes) ETV
attr interpolationmode none
attr source encapPk
attr title "packets encapsulated, vector(packetBytes)"
vector 123 Simulation.router3.eth[0].mac packetReceivedFromUpper:vector(packetBytes) ETV
attr interpolationmode none
attr source packetReceivedFromUpper
attr title "packet bytes from higher layer, vector(packetBytes)"
vector 124 Simulation.router3.eth[0].mac.queue packetPushed:vector(packetBytes) ETV
attr interpolationmode none
attr title "packet pushed, vector(packetBytes)"
vector 125 Simulation.router3.eth[0].mac.queue queueLength:vector ETV
attr interpolationmode sample-hold
attr source "count(packetPushed) - count(packetPopped) - count(packetRemoved) - count(packetDropped)"
attr title "queue length, vector"
vector 126 Simulation.router3.eth[0].mac.queue packetPopped:vector(packetBytes) ETV
attr interpolationmode none
attr title "packet popped, vector(packetBytes)"
vector 127 Simulation.router3.eth[0].mac.queue queueingTime:vector ETV
attr interpolationmode none
attr source queueingTime(packetPopped)
attr title "queueing times, vector"
attr unit s
vector 128 Simulation.router3.eth[0].mac txPk:vector(packetBytes) ETV
attr interpolationmode none
attr source packetSentToLower
attr title "packets transmitted, vector(packetBytes)"
vector 129 Simulation.ethHost3.eth[0].mac rxPkOk:vector(packetBytes) ETV
attr interpolationmode none
attr source rxPkOk
attr title "packets received OK, vector(packetBytes)"
vector 130 Simulation.ethHost3.eth[0].mac passedUpPk:vector(packetBytes) ETV
attr interpolationmode none
attr source packetSentToUpper
attr title "packets passed to higher layer, vector(packetBytes)"
vector 131 Simulation.ethHost3.eth[0].encap decapPk:vector(packetBytes) ETV
attr interpolationmode none
attr source decapPk
attr title "packets decapsulated, vector(packetBytes)"
vector 132 Simulation.ethHost3.ipv4.arp arpReplySent:vector(packetBytes) ETV
attr source arpReplySent
attr title "ARP replies sent, vector(packetBytes)"
vector 133 Simulation.ethHost3.eth[0].encap encapPk:vector(packetBytes) ETV
attr interpolationmode none
attr source encapPk
attr title "packets encapsulated, vector(packetBytes)"
vector 134 Simulation.ethHost3.eth[0].mac packetReceivedFromUpper:vector(packetBytes) ETV
attr interpolationmode none
attr source packetReceivedFromUpper
attr title "packet bytes from higher layer, vector(packetBytes)"
vector 135 Simulation.ethHost3.eth[0].mac.queue packetPushed:vector(packetBytes) ETV
attr interpolationmode none
attr title "packet pushed, vector(packetBytes)"
vector 136 Simulation.ethHost3.eth[0].mac.queue queueLength:vector ETV
attr interpolationmode sample-hold
attr source "count(packetPushed) - count(packetPopped) - count(packetRemoved) - count(packetDropped)"
attr title "queue length, vector"
vector 137 Simulation.ethHost3.eth[0].mac.queue packetPopped:vector(packetBytes) ETV
attr interpolationmode none
attr title "packet popped, vector(packetBytes)"
vector 138 Simulation.ethHost3.eth[0].mac.queue queueingTime:vector ETV
attr interpolationmode none
attr source queueingTime(packetPopped)
attr title "queueing times, vector"
attr unit s
vector 139 Simulation.ethHost3.eth[0].mac txPk:vector(packetBytes) ETV
attr interpolationmode none
attr source packetSentToLower
attr title "packets transmitted, vector(packetBytes)"
vector 140 Simulation.router3.eth[0].mac rxPkOk:vector(packetBytes) ETV
attr interpolationmode none
attr source rxPkOk
attr title "packets received OK, vector(packetBytes)"
vector 141 Simulation.router3.eth[0].mac passedUpPk:vector(packetBytes) ETV
attr interpolationmode none
attr source packetSentToUpper
attr title "packets passed to higher layer, vector(packetBytes)"
vector 142 Simulation.router3.eth[0].encap decapPk:vector(packetBytes) ETV
attr interpolationmode none
attr source decapPk
attr title "packets decapsulated, vector(packetBytes)"
vector 143 Simulation.ethHost3.tcp.conn-29 rcvSeq:vector ETV
attr interpolationmode sample-hold
vector 144 Simulation.ethHost3.tcp.conn-29 rcvAck:vector ETV
attr interpolationmode sample-hold
vector 145 Simulation.ethHost3.tcp.conn-36 rcvAdv:vector ETV
attr interpolationmode sample-hold
vector 146 Simulation.ethHost3.tcp.conn-36 sndWnd:vector ETV
attr interpolationmode sample-hold
vector 147 Simulation.ethHost3.tcp.conn-36 tcpRcvQueueBytes:vector ETV
attr interpolationmode sample-hold
vector 148 Simulation.ethHost3.tcp.conn-36 rcvWnd:vector ETV
attr interpolationmode sample-hold
vector 149 Simulation.ethHost3.tcp.conn-36 sndAck:vector ETV
attr interpolationmode sample-hold
vector 150 Simulation.router3.ppp[1].ppp rcvdPkFromHl:vector(packetBytes) ETV
attr interpolationmode none
attr source packetReceivedFromUpper
attr title "packets received from higher layer, vector(packetBytes)"
vector 151 Simulation.router3.ppp[1].ppp.queue packetPushed:vector(packetBytes) ETV
attr interpolationmode none
attr title "packet pushed, vector(packetBytes)"
vector 152 Simulation.router3.ppp[1].ppp.queue queueLength:vector ETV
attr interpolationmode sample-hold
attr source "count(packetPushed) - count(packetPopped) - count(packetRemoved) - count(packetDropped)"
attr title "queue length, vector"
vector 153 Simulation.router3.ppp[1].ppp.queue packetPopped:vector(packetBytes) ETV
attr interpolationmode none
attr title "packet popped, vector(packetBytes)"
vector 154 Simulation.router3.ppp[1].ppp.queue queueingTime:vector ETV
attr interpolationmode none
attr source queueingTime(packetPopped)
attr title "queueing times, vector"
attr unit s
vector 155 Simulation.router3.ppp[1].ppp txPk:vector(packetBytes) ETV
attr interpolationmode none
attr source packetSentToLower
attr title "packets transmitted, vector(packetBytes)"
vector 156 Simulation.router2.ppp[1].ppp rxPkOk:vector(packetBytes) ETV
attr interpolationmode none
attr source rxPkOk
attr title "packets received OK, vector(packetBytes)"
vector 157 Simulation.router2.ppp[1].ppp passedUpPk:vector(packetBytes) ETV
attr interpolationmode none
attr source packetSentToUpper
attr title "packets passed to higher layer, vector(packetBytes)"
vector 158 Simulation.ethHost2.tcp.conn-35 rcvSeq:vector ETV
attr interpolationmode sample-hold
vector 159 Simulation.ethHost2.tcp.conn-35 rcvAck:vector ETV
attr interpolationmode sample-hold
vector 160 Simulation.ethHost2.tcp.conn-35 sndWnd:vector ETV
attr interpolationmode sample-hold
vector 161 Simulation.ethHost2.tcp.conn-35 sndNxt:vector ETV
attr interpolationmode sample-hold
vector 162 Simulation.ethHost2.tcp.conn-35 unacked:vector ETV
attr interpolationmode sample-hold
vector 163 Simulation.ethHost3.tcp.conn-36 rcvSeq:vector ETV
attr interpolationmode sample-hold
vector 164 Simulation.ethHost3.tcp.conn-36 rcvAck:vector ETV
attr interpolationmode sample-hold
vector 165 Simulation.ethHost3.tcp.conn-36 unacked:vector ETV
attr interpolationmode sample-hold
vector 166 Simulation.ethHost3.tcp.conn-36 cwnd:vector ETV
attr interpolationmode sample-hold
vector 167 Simulation.ethHost3.tcp.conn-36 ssthresh:vector ETV
attr interpolationmode sample-hold
vector 168 Simulation.ethHost3.tcp.conn-36 dupAcks:vector ETV
attr interpolationmode sample-hold
vector 169 Simulation.ethHost3.app[0] packetSent:vector(packetBytes) ETV
attr interpolationmode none
attr source packetSent
attr title "packets sent, vector(packetBytes)"
vector 170 Simulation.ethHost3.app[0] packetReceived:vector(packetBytes) ETV
attr interpolationmode none
attr source packetReceived
attr title "packets received, vector(packetBytes)"
vector 171 Simulation.ethHost2.tcp.conn-35 rtt:vector ETV
attr interpolationmode sample-hold
vector 172 Simulation.ethHost2.tcp.conn-35 srtt:vector ETV
attr interpolationmode sample-hold
vector 173 Simulation.ethHost2.tcp.conn-35 rttvar:vector ETV
attr interpolationmode sample-hold
vector 174 Simulation.ethHost2.tcp.conn-35 rto:vector ETV
attr interpolationmode sample-hold
vector 175 Simulation.ethHost2.tcp.conn-35 cwnd:vector ETV
attr interpolationmode sample-hold
vector 176 Simulation.ethHost2.tcp.conn-35 ssthresh:vector ETV
attr interpolationmode sample-hold
vector 177 Simulation.ethHost2.tcp.conn-35 dupAcks:vector ETV
attr interpolationmode sample-hold
vector 178 Simulation.ethHost3.tcp.conn-36 rtt:vector ETV
attr interpolationmode sample-hold
vector 179 Simulation.ethHost3.tcp.conn-36 srtt:vector ETV
attr interpolationmode sample-hold
vector 180 Simulation.ethHost3.tcp.conn-36 rttvar:vector ETV
attr interpolationmode sample-hold
vector 181 Simulation.ethHost3.tcp.conn-36 rto:vector ETV
attr interpolationmode sample-hold
108	166	0.05011903	2.6250239375
108	323	0.15015749	2.296917489063
107	166	0.05011903	0.6562547875
107	323	0.15015749	0.574227128125
106	166	0.05011903	4.7875e-06
106	323	0.15015749	8.976563e-06
93	100	0.05008073	4294967295
93	166	0.05011903	4294967295
93	323	0.15015749	4294967295
92	100	0.05008073	1072
92	166	0.05011903	1608
92	323	0.15015749	2144
73	59	0.05003899	0
73	100	0.05008073	0
73	100	0.05008073	48
73	108	0.05008073	0
73	239	0.15011919	0
73	239	0.15011919	0
73	242	0.15011919	0
73	417	0.25015773	0
73	417	0.25015773	0
73	420	0.25015773	0
73	421	0.25015773	0
94	100	0.05008073	0
94	166	0.05011903	0
94	239	0.15011919	0
94	323	0.15015749	0
94	417	0.25015773	0
91	100	0.05008073	0
91	108	0.05008073	7
91	166	0.05011903	0
91	242	0.15011919	7
91	323	0.15015749	0
91	420	0.25015773	7
91	421	0.25015773	8
90	100	0.05008073	12510
90	166	0.05011903	12517
90	239	0.15011919	12517
90	323	0.15015749	12524
90	417	0.25015773	12524
89	100	0.05008073	12500
89	166	0.05011903	12548
89	239	0.15011919	12548
89	323	0.15015749	12550
89	417	0.25015773	12550
75	59	0.05003899	12500
75	100	0.05008073	12548
75	108	0.05008073	12548
75	239	0.15011919	12550
75	242	0.15011919	12550
75	417	0.25015773	12553
75	420	0.25015773	12553
75	421	0.25015773	12553
71	59	0.05003899	20004
71	59	0.05003899	20004
71	100	0.05008073	20004
71	108	0.05008073	20052
71	239	0.15011919	20054
71	242	0.15011919	20054
71	417	0.25015773	20057
71	420	0.25015773	20057
71	421	0.25015773	20057
74	59	0.05003899	7504
74	100	0.05008073	7456
74	108	0.05008073	7504
74	239	0.15011919	7504
74	242	0.15011919	7504
74	417	0.25015773	7504
74	420	0.25015773	7504
74	421	0.25015773	7504
72	59	0.05003899	7504
72	100	0.05008073	7504
72	166	0.05011903	7504
72	323	0.15015749	7504
105	166	0.05011903	3.83e-05
105	323	0.15015749	3.83e-05
vector 182 Simulation.ethHost3.tcp.conn-40 tcpRcvQueueBytes:vector ETV
attr interpolationmode sample-hold
vector 183 Simulation.ethHost3.tcp.conn-40 rcvAdv:vector ETV
attr interpolationmode sample-hold
vector 184 Simulation.ethHost3.tcp.conn-40 rcvWnd:vector ETV
attr interpolationmode sample-hold
vector 185 Simulation.ethHost3.tcp.conn-40 sndAck:vector ETV
attr interpolationmode sample-hold
vector 186 Simulation.router3.ppp[2].ppp rcvdPkFromHl:vector(packetBytes) ETV
attr interpolationmode none
attr source packetReceivedFromUpper
attr title "packets received from higher layer, vector(packetBytes)"
vector 187 Simulation.router3.ppp[2].ppp.queue packetPushed:vector(packetBytes) ETV
attr interpolationmode none
attr title "packet pushed, vector(packetBytes)"
vector 188 Simulation.router3.ppp[2].ppp.queue queueLength:vector ETV
attr interpolationmode sample-hold
attr source "count(packetPushed) - count(packetPopped) - count(packetRemoved) - count(packetDropped)"
attr title "queue length, vector"
vector 189 Simulation.router3.ppp[2].ppp.queue packetPopped:vector(packetBytes) ETV
attr interpolationmode none
attr title "packet popped, vector(packetBytes)"
vector 190 Simulation.router3.ppp[2].ppp.queue queueingTime:vector ETV
attr interpolationmode none
attr source queueingTime(packetPopped)
attr title "queueing times, vector"
attr unit s
vector 191 Simulation.router3.ppp[2].ppp txPk:vector(packetBytes) ETV
attr interpolationmode none
attr source packetSentToLower
attr title "packets transmitted, vector(packetBytes)"
vector 192 Simulation.router4.ppp[2].ppp rxPkOk:vector(packetBytes) ETV
attr interpolationmode none
attr source rxPkOk
attr title "packets received OK, vector(packetBytes)"
vector 193 Simulation.router4.ppp[2].ppp passedUpPk:vector(packetBytes) ETV
attr interpolationmode none
attr source packetSentToUpper
attr title "packets passed to higher layer, vector(packetBytes)"
vector 194 Simulation.router4.ipv4.arp arpRequestSent:vector(packetBytes) ETV
attr source arpRequestSent
attr title "ARP request sent, vector(packetBytes)"
vector 195 Simulation.router4.eth[0].encap encapPk:vector(packetBytes) ETV
attr interpolationmode none
attr source encapPk
attr title "packets encapsulated, vector(packetBytes)"
vector 196 Simulation.router4.eth[0].mac packetReceivedFromUpper:vector(packetBytes) ETV
attr interpolationmode none
attr source packetReceivedFromUpper
attr title "packet bytes from higher layer, vector(packetBytes)"
vector 197 Simulation.router4.eth[0].mac.queue packetPushed:vector(packetBytes) ETV
attr interpolationmode none
attr title "packet pushed, vector(packetBytes)"
vector 198 Simulation.router4.eth[0].mac.queue queueLength:vector ETV
attr interpolationmode sample-hold
attr source "count(packetPushed) - count(packetPopped) - count(packetRemoved) - count(packetDropped)"
attr title "queue length, vector"
vector 199 Simulation.router4.eth[0].mac.queue packetPopped:vector(packetBytes) ETV
attr interpolationmode none
attr title "packet popped, vector(packetBytes)"
vector 200 Simulation.router4.eth[0].mac.queue queueingTime:vector ETV
attr interpolationmode none
attr source queueingTime(packetPopped)
attr title "queueing times, vector"
attr unit s
vector 201 Simulation.router4.eth[0].mac txPk:vector(packetBytes) ETV
attr interpolationmode none
attr source packetSentToLower
attr title "packets transmitted, vector(packetBytes)"
vector 202 Simulation.ethHost4.eth[0].mac rxPkOk:vector(packetBytes) ETV
attr interpolationmode none
attr source rxPkOk
attr title "packets received OK, vector(packetBytes)"
vector 203 Simulation.ethHost4.eth[0].mac passedUpPk:vector(packetBytes) ETV
attr interpolationmode none
attr source packetSentToUpper
attr title "packets passed to higher layer, vector(packetBytes)"
vector 204 Simulation.ethHost4.eth[0].encap decapPk:vector(packetBytes) ETV
attr interpolationmode none
attr source decapPk
attr title "packets decapsulated, vector(packetBytes)"
vector 205 Simulation.ethHost4.ipv4.arp arpReplySent:vector(packetBytes) ETV
attr source arpReplySent
attr title "ARP replies sent, vector(packetBytes)"
vector 206 Simulation.ethHost4.eth[0].encap encapPk:vector(packetBytes) ETV
attr interpolationmode none
attr source encapPk
attr title "packets encapsulated, vector(packetBytes)"
vector 207 Simulation.ethHost4.eth[0].mac packetReceivedFromUpper:vector(packetBytes) ETV
attr interpolationmode none
attr source packetReceivedFromUpper
attr title "packet bytes from higher layer, vector(packetBytes)"
vector 208 Simulation.ethHost4.eth[0].mac.queue packetPushed:vector(packetBytes) ETV
attr interpolationmode none
attr title "packet pushed, vector(packetBytes)"
vector 209 Simulation.ethHost4.eth[0].mac.queue queueLength:vector ETV
attr interpolationmode sample-hold
attr source "count(packetPushed) - count(packetPopped) - count(packetRemoved) - count(packetDropped)"
attr title "queue length, vector"
vector 210 Simulation.ethHost4.eth[0].mac.queue packetPopped:vector(packetBytes) ETV
attr interpolationmode none
attr title "packet popped, vector(packetBytes)"
vector 211 Simulation.ethHost4.eth[0].mac.queue queueingTime:vector ETV
attr interpolationmode none
attr source queueingTime(packetPopped)
attr title "queueing times, vector"
attr unit s
vector 212 Simulation.ethHost4.eth[0].mac txPk:vector(packetBytes) ETV
attr interpolationmode none
attr source packetSentToLower
attr title "packets transmitted, vector(packetBytes)"
vector 213 Simulation.router4.eth[0].mac rxPkOk:vector(packetBytes) ETV
attr interpolationmode none
attr source rxPkOk
attr title "packets received OK, vector(packetBytes)"
vector 214 Simulation.router4.eth[0].mac passedUpPk:vector(packetBytes) ETV
attr interpolationmode none
attr source packetSentToUpper
attr title "packets passed to higher layer, vector(packetBytes)"
vector 215 Simulation.router4.eth[0].encap decapPk:vector(packetBytes) ETV
attr interpolationmode none
attr source decapPk
attr title "packets decapsulated, vector(packetBytes)"
100	134	0.05009616	2.6250258875
100	280	0.15013462	2.296914450313
100	473	0.25017316	2.009815377616
99	134	0.05009616	0.6562551775
99	280	0.15013462	0.574226510625
99	473	0.25017316	0.50245103332
98	134	0.05009616	5.1775e-06
98	280	0.15013462	8.407813e-06
98	473	0.25017316	1.1244336e-05
102	134	0.05009616	4294967295
102	280	0.15013462	4294967295
102	473	0.25017316	4294967295
101	134	0.05009616	1072
101	280	0.15013462	1608
101	473	0.25017316	2144
13	11	0.05	0
13	79	0.05005474	0
13	145	0.0501036	0
13	145	0.0501036	0
13	200	0.1501036	0
13	296	0.15014206	0
13	296	0.15014206	0
13	398	0.25014206	0
13	503	0.2501806	0
13	503	0.2501806	0
13	506	0.2501806	0
103	134	0.05009616	0
103	145	0.0501036	0
103	280	0.15013462	0
103	296	0.15014206	0
103	473	0.25017316	0
103	503	0.2501806	0
88	79	0.05005474	48
88	134	0.05009616	0
88	200	0.1501036	2
88	280	0.15013462	0
88	398	0.25014206	3
88	473	0.25017316	0
88	506	0.2501806	1
85	79	0.05005474	12500
85	134	0.05009616	12548
85	145	0.0501036	12548
85	280	0.15013462	12550
85	296	0.15014206	12550
85	473	0.25017316	12553
85	503	0.2501806	12553
84	79	0.05005474	12509
84	134	0.05009616	12510
84	145	0.0501036	12510
84	280	0.15013462	12517
84	296	0.15014206	12517
84	473	0.25017316	12524
84	503	0.2501806	12524
16	11	0.05	0
16	79	0.05005474	12510
16	145	0.0501036	12517
16	200	0.1501036	12517
16	296	0.15014206	12524
16	398	0.25014206	12524
16	503	0.2501806	12531
16	506	0.2501806	12531
87	79	0.05005474	12500
14	11	0.05	7504
14	79	0.05005474	20014
14	79	0.05005474	20014
14	145	0.0501036	20021
14	200	0.1501036	20021
14	296	0.15014206	20028
14	398	0.25014206	20028
14	503	0.2501806	20035
14	506	0.2501806	20035
15	11	0.05	7504
15	79	0.05005474	7504
15	145	0.0501036	7504
15	200	0.1501036	7504
15	296	0.15014206	7504
15	398	0.25014206	7504
15	503	0.2501806	7504
15	506	0.2501806	7504
86	79	0.05005474	7504
86	134	0.05009616	7456
86	280	0.15013462	7504
86	473	0.25017316	7504
97	134	0.05009616	4.142e-05
97	280	0.15013462	3.102e-05
97	473	0.25017316	3.11e-05
vector 216 Simulation.ethHost4.tcp.conn-31 rcvSeq:vector ETV
attr interpolationmode sample-hold
vector 217 Simulation.ethHost4.tcp.conn-31 rcvAck:vector ETV
attr interpolationmode sample-hold
vector 218 Simulation.ethHost4.tcp.conn-42 rcvAdv:vector ETV
attr interpolationmode sample-hold
vector 219 Simulation.ethHost4.tcp.conn-42 sndWnd:vector ETV
attr interpolationmode sample-hold
vector 220 Simulation.ethHost4.tcp.conn-42 tcpRcvQueueBytes:vector ETV
attr interpolationmode sample-hold
vector 221 Simulation.ethHost4.tcp.conn-42 rcvWnd:vector ETV
attr interpolationmode sample-hold
vector 222 Simulation.ethHost4.tcp.conn-42 sndAck:vector ETV
attr interpolationmode sample-hold
vector 223 Simulation.ethHost1.tcp.conn-25 rcvSeq:vector ETV
attr interpolationmode sample-hold
vector 224 Simulation.ethHost1.tcp.conn-25 rcvAck:vector ETV
attr interpolationmode sample-hold
vector 225 Simulation.router4.ppp[2].ppp rcvdPkFromHl:vector(packetBytes) ETV
attr interpolationmode none
attr source packetReceivedFromUpper
attr title "packets received from higher layer, vector(packetBytes)"
vector 226 Simulation.router4.ppp[2].ppp.queue packetPushed:vector(packetBytes) ETV
attr interpolationmode none
attr title "packet pushed, vector(packetBytes)"
vector 227 Simulation.router4.ppp[2].ppp.queue queueLength:vector ETV
attr interpolationmode sample-hold
attr source "count(packetPushed) - count(packetPopped) - count(packetRemoved) - count(packetDropped)"
attr title "queue length, vector"
vector 228 Simulation.router4.ppp[2].ppp.queue packetPopped:vector(packetBytes) ETV
attr interpolationmode none
attr title "packet popped, vector(packetBytes)"
vector 229 Simulation.router4.ppp[2].ppp.queue queueingTime:vector ETV
attr interpolationmode none
attr source queueingTime(packetPopped)
attr title "queueing times, vector"
attr unit s
vector 230 Simulation.router4.ppp[2].ppp txPk:vector(packetBytes) ETV
attr interpolationmode none
attr source packetSentToLower
attr title "packets transmitted, vector(packetBytes)"
vector 231 Simulation.router3.ppp[2].ppp rxPkOk:vector(packetBytes) ETV
attr interpolationmode none
attr source rxPkOk
attr title "packets received OK, vector(packetBytes)"
vector 232 Simulation.router3.ppp[2].ppp passedUpPk:vector(packetBytes) ETV
attr interpolationmode none
attr source packetSentToUpper
attr title "packets passed to higher layer, vector(packetBytes)"
vector 233 Simulation.ethHost3.tcp.conn-40 rcvSeq:vector ETV
attr interpolationmode sample-hold
vector 234 Simulation.ethHost3.tcp.conn-40 rcvAck:vector ETV
attr interpolationmode sample-hold
vector 235 Simulation.ethHost3.tcp.conn-40 sndWnd:vector ETV
attr interpolationmode sample-hold
vector 236 Simulation.ethHost3.tcp.conn-40 sndNxt:vector ETV
attr interpolationmode sample-hold
vector 237 Simulation.ethHost3.tcp.conn-40 unacked:vector ETV
attr interpolationmode sample-hold
vector 238 Simulation.ethHost4.tcp.conn-42 rcvSeq:vector ETV
attr interpolationmode sample-hold
vector 239 Simulation.ethHost4.tcp.conn-42 rcvAck:vector ETV
attr interpolationmode sample-hold
vector 240 Simulation.ethHost4.tcp.conn-42 unacked:vector ETV
attr interpolationmode sample-hold
vector 241 Simulation.ethHost4.tcp.conn-42 cwnd:vector ETV
attr interpolationmode sample-hold
vector 242 Simulation.ethHost4.tcp.conn-42 ssthresh:vector ETV
attr interpolationmode sample-hold
vector 243 Simulation.ethHost4.tcp.conn-42 dupAcks:vector ETV
attr interpolationmode sample-hold
vector 244 Simulation.ethHost4.app[0] packetSent:vector(packetBytes) ETV
attr interpolationmode none
attr source packetSent
attr title "packets sent, vector(packetBytes)"
vector 245 Simulation.ethHost4.app[0] packetReceived:vector(packetBytes) ETV
attr interpolationmode none
attr source packetReceived
attr title "packets received, vector(packetBytes)"
vector 246 Simulation.ethHost3.tcp.conn-40 rtt:vector ETV
attr interpolationmode sample-hold
vector 247 Simulation.ethHost3.tcp.conn-40 srtt:vector ETV
attr interpolationmode sample-hold
vector 248 Simulation.ethHost3.tcp.conn-40 rttvar:vector ETV
attr interpolationmode sample-hold
vector 249 Simulation.ethHost3.tcp.conn-40 rto:vector ETV
attr interpolationmode sample-hold
vector 250 Simulation.ethHost3.tcp.conn-40 cwnd:vector ETV
attr interpolationmode sample-hold
vector 251 Simulation.ethHost3.tcp.conn-40 ssthresh:vector ETV
attr interpolationmode sample-hold
vector 252 Simulation.ethHost3.tcp.conn-40 dupAcks:vector ETV
attr interpolationmode sample-hold
vector 253 Simulation.ethHost4.tcp.conn-42 rtt:vector ETV
attr interpolationmode sample-hold
vector 254 Simulation.ethHost4.tcp.conn-42 srtt:vector ETV
attr interpolationmode sample-hold
vector 255 Simulation.ethHost4.tcp.conn-42 rttvar:vector ETV
attr interpolationmode sample-hold
vector 256 Simulation.ethHost4.tcp.conn-42 rto:vector ETV
attr interpolationmode sample-hold
vector 257 Simulation.ethHost1.tcp.conn-44 tcpRcvQueueBytes:vector ETV
attr interpolationmode sample-hold
vector 258 Simulation.ethHost1.tcp.conn-44 rcvAdv:vector ETV
attr interpolationmode sample-hold
vector 259 Simulation.ethHost1.tcp.conn-44 rcvWnd:vector ETV
attr interpolationmode sample-hold
vector 260 Simulation.ethHost1.tcp.conn-44 sndAck:vector ETV
attr interpolationmode sample-hold
vector 261 Simulation.ethHost2.tcp.conn-38 rcvSeq:vector ETV
attr interpolationmode sample-hold
vector 262 Simulation.ethHost2.tcp.conn-38 rcvAck:vector ETV
attr interpolationmode sample-hold
vector 263 Simulation.ethHost2.tcp.conn-45 rcvAdv:vector ETV
attr interpolationmode sample-hold
vector 264 Simulation.ethHost2.tcp.conn-45 sndWnd:vector ETV
attr interpolationmode sample-hold
vector 265 Simulation.ethHost2.tcp.conn-45 tcpRcvQueueBytes:vector ETV
attr interpolationmode sample-hold
vector 266 Simulation.ethHost2.tcp.conn-45 rcvWnd:vector ETV
attr interpolationmode sample-hold
vector 267 Simulation.ethHost2.tcp.conn-45 sndAck:vector ETV
attr interpolationmode sample-hold
vector 268 Simulation.ethHost1.tcp.conn-44 rcvSeq:vector ETV
attr interpolationmode sample-hold
vector 269 Simulation.ethHost1.tcp.conn-44 rcvAck:vector ETV
attr interpolationmode sample-hold
vector 270 Simulation.ethHost1.tcp.conn-44 sndWnd:vector ETV
attr interpolationmode sample-hold
vector 271 Simulation.ethHost1.tcp.conn-44 sndNxt:vector ETV
attr interpolationmode sample-hold
vector 272 Simulation.ethHost1.tcp.conn-44 unacked:vector ETV
attr interpolationmode sample-hold
vector 273 Simulation.ethHost2.tcp.conn-45 rcvSeq:vector ETV
attr interpolationmode sample-hold
vector 274 Simulation.ethHost2.tcp.conn-45 rcvAck:vector ETV
attr interpolationmode sample-hold
vector 275 Simulation.ethHost2.tcp.conn-45 unacked:vector ETV
attr interpolationmode sample-hold
vector 276 Simulation.ethHost2.tcp.conn-45 cwnd:vector ETV
attr interpolationmode sample-hold
vector 277 Simulation.ethHost2.tcp.conn-45 ssthresh:vector ETV
attr interpolationmode sample-hold
vector 278 Simulation.ethHost2.tcp.conn-45 dupAcks:vector ETV
attr interpolationmode sample-hold
vector 279 Simulation.ethHost1.tcp.conn-44 rtt:vector ETV
attr interpolationmode sample-hold
vector 280 Simulation.ethHost1.tcp.conn-44 srtt:vector ETV
attr interpolationmode sample-hold
vector 281 Simulation.ethHost1.tcp.conn-44 rttvar:vector ETV
attr interpolationmode sample-hold
vector 282 Simulation.ethHost1.tcp.conn-44 rto:vector ETV
attr interpolationmode sample-hold
vector 283 Simulation.ethHost1.tcp.conn-44 cwnd:vector ETV
attr interpolationmode sample-hold
vector 284 Simulation.ethHost1.tcp.conn-44 ssthresh:vector ETV
attr interpolationmode sample-hold
vector 285 Simulation.ethHost1.tcp.conn-44 dupAcks:vector ETV
attr interpolationmode sample-hold
181	395	0.150197	2.6250239375
181	913	0.45031478	2.296917489063
180	395	0.150197	0.6562547875
180	913	0.45031478	0.574227128125
179	395	0.150197	4.7875e-06
179	913	0.45031478	8.976563e-06
167	329	0.1501587	4294967295
167	395	0.150197	4294967295
167	913	0.45031478	4294967295
166	329	0.1501587	1072
166	395	0.150197	1608
166	913	0.45031478	2144
147	208	0.1501081	0
147	329	0.1501587	0
147	329	0.1501587	48
147	337	0.1501587	0
147	850	0.45027648	0
147	850	0.45027648	0
147	853	0.45027648	0
147	935	0.55031502	0
147	935	0.55031502	0
147	938	0.55031502	0
147	939	0.55031502	0
168	329	0.1501587	0
168	395	0.150197	0
168	850	0.45027648	0
168	913	0.45031478	0
168	935	0.55031502	0
165	329	0.1501587	0
165	337	0.1501587	7
165	395	0.150197	0
165	853	0.45027648	7
165	913	0.45031478	0
165	938	0.55031502	7
165	939	0.55031502	8
164	329	0.1501587	37528
164	395	0.150197	37535
164	850	0.45027648	37535
164	913	0.45031478	37542
164	935	0.55031502	37542
163	329	0.1501587	37521
163	395	0.150197	37569
163	850	0.45027648	37569
163	913	0.45031478	37571
163	935	0.55031502	37571
149	208	0.1501081	37521
149	329	0.1501587	37569
149	337	0.1501587	37569
149	850	0.45027648	37571
149	853	0.45027648	37571
149	935	0.55031502	37574
149	938	0.55031502	37574
149	939	0.55031502	37574
145	208	0.1501081	45025
145	208	0.1501081	45025
145	329	0.1501587	45025
145	337	0.1501587	45073
145	850	0.45027648	45075
145	853	0.45027648	45075
145	935	0.55031502	45078
145	938	0.55031502	45078
145	939	0.55031502	45078
148	208	0.1501081	7504
148	329	0.1501587	7456
148	337	0.1501587	7504
148	850	0.45027648	7504
148	853	0.45027648	7504
148	935	0.55031502	7504
148	938	0.55031502	7504
148	939	0.55031502	7504
146	208	0.1501081	7504
146	329	0.1501587	7504
146	395	0.150197	7504
146	913	0.45031478	7504
178	395	0.150197	3.83e-05
178	913	0.45031478	3.83e-05
174	363	0.15017413	2.6250301375
174	881	0.45029191	2.296917744063
174	974	0.55033045	2.009817887774
173	363	0.15017413	0.6562560275
173	881	0.45029191	0.574227148125
173	974	0.55033045	0.502451498164
172	363	0.15017413	6.0275e-06
172	881	0.45029191	9.151563e-06
172	974	0.55033045	1.1895118e-05
176	363	0.15017413	4294967295
176	881	0.45029191	4294967295
176	974	0.55033045	4294967295
175	363	0.15017413	1072
175	881	0.45029191	1608
175	974	0.55033045	2144
109	169	0.15008073	0
109	259	0.15012591	0
109	374	0.15018157	0
109	374	0.15018157	0
109	831	0.45026089	0
109	892	0.45029935	0
109	892	0.45029935	0
109	916	0.55029935	0
109	991	0.55033789	0
109	991	0.55033789	0
109	994	0.55033789	0
177	363	0.15017413	0
177	374	0.15018157	0
177	881	0.45029191	0
177	892	0.45029935	0
177	974	0.55033045	0
177	991	0.55033789	0
162	259	0.15012591	48
162	363	0.15017413	0
162	831	0.45026089	2
162	881	0.45029191	0
162	916	0.55029935	3
162	974	0.55033045	0
162	994	0.55033789	1
159	259	0.15012591	37521
159	363	0.15017413	37569
159	374	0.15018157	37569
159	881	0.45029191	37571
159	892	0.45029935	37571
159	974	0.55033045	37574
159	991	0.55033789	37574
158	259	0.15012591	37527
158	363	0.15017413	37528
158	374	0.15018157	37528
158	881	0.45029191	37535
158	892	0.45029935	37535
158	974	0.55033045	37542
158	991	0.55033789	37542
112	169	0.15008073	0
112	259	0.15012591	37528
112	374	0.15018157	37535
112	831	0.45026089	37535
112	892	0.45029935	37542
112	916	0.55029935	37542
112	991	0.55033789	37549
112	994	0.55033789	37549
161	259	0.15012591	37521
110	169	0.15008073	7504
110	259	0.15012591	45032
110	259	0.15012591	45032
110	374	0.15018157	45039
110	831	0.45026089	45039
110	892	0.45029935	45046
110	916	0.55029935	45046
110	991	0.55033789	45053
110	994	0.55033789	45053
111	169	0.15008073	7504
111	259	0.15012591	7504
111	374	0.15018157	7504
111	831	0.45026089	7504
111	892	0.45029935	7504
111	916	0.55029935	7504
111	991	0.55033789	7504
111	994	0.55033789	7504
160	259	0.15012591	7504
160	363	0.15017413	7456
160	881	0.45029191	7504
160	974	0.55033045	7504
171	363	0.15017413	4.822e-05
171	881	0.45029191	3.102e-05
171	974	0.55033045	3.11e-05
vector 286 Simulation.ethHost2.tcp.conn-52 tcpRcvQueueBytes:vector ETV
attr interpolationmode sample-hold
vector 287 Simulation.ethHost2.tcp.conn-52 rcvAdv:vector ETV
attr interpolationmode sample-hold
vector 288 Simulation.ethHost2.tcp.conn-52 rcvWnd:vector ETV
attr interpolationmode sample-hold
vector 289 Simulation.ethHost2.tcp.conn-52 sndAck:vector ETV
attr interpolationmode sample-hold
vector 290 Simulation.ethHost3.tcp.conn-49 rcvSeq:vector ETV
attr interpolationmode sample-hold
vector 291 Simulation.ethHost3.tcp.conn-49 rcvAck:vector ETV
attr interpolationmode sample-hold
vector 292 Simulation.ethHost3.tcp.conn-53 rcvAdv:vector ETV
attr interpolationmode sample-hold
vector 293 Simulation.ethHost3.tcp.conn-53 sndWnd:vector ETV
attr interpolationmode sample-hold
vector 294 Simulation.ethHost3.tcp.conn-53 tcpRcvQueueBytes:vector ETV
attr interpolationmode sample-hold
vector 295 Simulation.ethHost3.tcp.conn-53 rcvWnd:vector ETV
attr interpolationmode sample-hold
vector 296 Simulation.ethHost3.tcp.conn-53 sndAck:vector ETV
attr interpolationmode sample-hold
vector 297 Simulation.ethHost2.tcp.conn-52 rcvSeq:vector ETV
attr interpolationmode sample-hold
vector 298 Simulation.ethHost2.tcp.conn-52 rcvAck:vector ETV
attr interpolationmode sample-hold
vector 299 Simulation.ethHost2.tcp.conn-52 sndWnd:vector ETV
attr interpolationmode sample-hold
vector 300 Simulation.ethHost2.tcp.conn-52 sndNxt:vector ETV
attr interpolationmode sample-hold
vector 301 Simulation.ethHost2.tcp.conn-52 unacked:vector ETV
attr interpolationmode sample-hold
vector 302 Simulation.ethHost3.tcp.conn-53 rcvSeq:vector ETV
attr interpolationmode sample-hold
vector 303 Simulation.ethHost3.tcp.conn-53 rcvAck:vector ETV
attr interpolationmode sample-hold
vector 304 Simulation.ethHost3.tcp.conn-53 unacked:vector ETV
attr interpolationmode sample-hold
vector 305 Simulation.ethHost3.tcp.conn-53 cwnd:vector ETV
attr interpolationmode sample-hold
vector 306 Simulation.ethHost3.tcp.conn-53 ssthresh:vector ETV
attr interpolationmode sample-hold
vector 307 Simulation.ethHost3.tcp.conn-53 dupAcks:vector ETV
attr interpolationmode sample-hold
vector 308 Simulation.ethHost2.tcp.conn-52 rtt:vector ETV
attr interpolationmode sample-hold
vector 309 Simulation.ethHost2.tcp.conn-52 srtt:vector ETV
attr interpolationmode sample-hold
vector 310 Simulation.ethHost2.tcp.conn-52 rttvar:vector ETV
attr interpolationmode sample-hold
vector 311 Simulation.ethHost2.tcp.conn-52 rto:vector ETV
attr interpolationmode sample-hold
vector 312 Simulation.ethHost2.tcp.conn-52 cwnd:vector ETV
attr interpolationmode sample-hold
vector 313 Simulation.ethHost2.tcp.conn-52 ssthresh:vector ETV
attr interpolationmode sample-hold
vector 314 Simulation.ethHost2.tcp.conn-52 dupAcks:vector ETV
attr interpolationmode sample-hold
256	733	0.25026611	2.6250239375
256	1286	0.75047207	2.296917489063
255	733	0.25026611	0.6562547875
255	1286	0.75047207	0.574227128125
254	733	0.25026611	4.7875e-06
254	1286	0.75047207	8.976563e-06
242	667	0.25022781	4294967295
242	733	0.25026611	4294967295
242	1286	0.75047207	4294967295
241	667	0.25022781	1072
241	733	0.25026611	1608
241	1286	0.75047207	2144
220	526	0.25018607	0
220	667	0.25022781	0
220	667	0.25022781	48
220	675	0.25022781	0
220	1223	0.75043377	0
220	1223	0.75043377	0
220	1226	0.75043377	0
220	1308	0.85047231	0
220	1308	0.85047231	0
220	1311	0.85047231	0
220	1312	0.85047231	0
243	667	0.25022781	0
243	733	0.25026611	0
243	1223	0.75043377	0
243	1286	0.75047207	0
243	1308	0.85047231	0
240	667	0.25022781	0
240	675	0.25022781	7
240	733	0.25026611	0
240	1226	0.75043377	7
240	1286	0.75047207	0
240	1311	0.85047231	7
240	1312	0.85047231	8
239	667	0.25022781	62547
239	733	0.25026611	62554
239	1223	0.75043377	62554
239	1286	0.75047207	62561
239	1308	0.85047231	62561
238	667	0.25022781	62540
238	733	0.25026611	62588
238	1223	0.75043377	62588
238	1286	0.75047207	62590
238	1308	0.85047231	62590
222	526	0.25018607	62540
222	667	0.25022781	62588
222	675	0.25022781	62588
222	1223	0.75043377	62590
222	1226	0.75043377	62590
222	1308	0.85047231	62593
222	1311	0.85047231	62593
222	1312	0.85047231	62593
218	526	0.25018607	70044
218	526	0.25018607	70044
218	667	0.25022781	70044
218	675	0.25022781	70092
218	1223	0.75043377	70094
218	1226	0.75043377	70094
218	1308	0.85047231	70097
218	1311	0.85047231	70097
218	1312	0.85047231	70097
221	526	0.25018607	7504
221	667	0.25022781	7456
221	675	0.25022781	7504
221	1223	0.75043377	7504
221	1226	0.75043377	7504
221	1308	0.85047231	7504
221	1311	0.85047231	7504
221	1312	0.85047231	7504
219	526	0.25018607	7504
219	667	0.25022781	7504
219	733	0.25026611	7504
219	1286	0.75047207	7504
253	733	0.25026611	3.83e-05
253	1286	0.75047207	3.83e-05
249	701	0.25024324	2.6250258875
249	1254	0.7504492	2.296914450313
249	1347	0.85048774	2.009815377616
248	701	0.25024324	0.6562551775
248	1254	0.7504492	0.574226510625
248	1347	0.85048774	0.50245103332
247	701	0.25024324	5.1775e-06
247	1254	0.7504492	8.407813e-06
247	1347	0.85048774	1.1244336e-05
251	701	0.25024324	4294967295
251	1254	0.7504492	4294967295
251	1347	0.85048774	4294967295
250	701	0.25024324	1072
250	1254	0.7504492	1608
250	1347	0.85048774	2144
182	436	0.2501587	0
182	593	0.25020182	0
182	712	0.25025068	0
182	712	0.25025068	0
182	1204	0.75041818	0
182	1265	0.75045664	0
182	1265	0.75045664	0
182	1289	0.85045664	0
182	1364	0.85049518	0
182	1364	0.85049518	0
182	1367	0.85049518	0
252	701	0.25024324	0
252	712	0.25025068	0
252	1254	0.7504492	0
252	1265	0.75045664	0
252	1347	0.85048774	0
252	1364	0.85049518	0
237	593	0.25020182	48
237	701	0.25024324	0
237	1204	0.75041818	2
237	1254	0.7504492	0
237	1289	0.85045664	3
237	1347	0.85048774	0
237	1367	0.85049518	1
234	593	0.25020182	62540
234	701	0.25024324	62588
234	712	0.25025068	62588
234	1254	0.7504492	62590
234	1265	0.75045664	62590
234	1347	0.85048774	62593
234	1364	0.85049518	62593
233	593	0.25020182	62546
233	701	0.25024324	62547
233	712	0.25025068	62547
233	1254	0.7504492	62554
233	1265	0.75045664	62554
233	1347	0.85048774	62561
233	1364	0.85049518	62561
185	436	0.2501587	0
185	593	0.25020182	62547
185	712	0.25025068	62554
185	1204	0.75041818	62554
185	1265	0.75045664	62561
185	1289	0.85045664	62561
185	1364	0.85049518	62568
185	1367	0.85049518	62568
236	593	0.25020182	62540
183	436	0.2501587	7504
183	593	0.25020182	70051
183	593	0.25020182	70051
183	712	0.25025068	70058
183	1204	0.75041818	70058
183	1265	0.75045664	70065
183	1289	0.85045664	70065
183	1364	0.85049518	70072
183	1367	0.85049518	70072
184	436	0.2501587	7504
184	593	0.25020182	7504
184	712	0.25025068	7504
184	1204	0.75041818	7504
184	1265	0.75045664	7504
184	1289	0.85045664	7504
184	1364	0.85049518	7504
184	1367	0.85049518	7504
235	593	0.25020182	7504
235	701	0.25024324	7456
235	1254	0.7504492	7504
235	1347	0.85048774	7504
246	701	0.25024324	4.142e-05
246	1254	0.7504492	3.102e-05
246	1347	0.85048774	3.11e-05
vector 315 Simulation.ethHost3.tcp.conn-58 tcpRcvQueueBytes:vector ETV
attr interpolationmode sample-hold
vector 316 Simulation.ethHost3.tcp.conn-58 rcvAdv:vector ETV
attr interpolationmode sample-hold
vector 317 Simulation.ethHost3.tcp.conn-58 rcvWnd:vector ETV
attr interpolationmode sample-hold
vector 318 Simulation.ethHost3.tcp.conn-58 sndAck:vector ETV
attr interpolationmode sample-hold
vector 319 Simulation.ethHost4.tcp.conn-55 rcvSeq:vector ETV
attr interpolationmode sample-hold
vector 320 Simulation.ethHost4.tcp.conn-55 rcvAck:vector ETV
attr interpolationmode sample-hold
vector 321 Simulation.ethHost4.tcp.conn-59 rcvAdv:vector ETV
attr interpolationmode sample-hold
vector 322 Simulation.ethHost4.tcp.conn-59 sndWnd:vector ETV
attr interpolationmode sample-hold
vector 323 Simulation.ethHost4.tcp.conn-59 tcpRcvQueueBytes:vector ETV
attr interpolationmode sample-hold
vector 324 Simulation.ethHost4.tcp.conn-59 rcvWnd:vector ETV
attr interpolationmode sample-hold
vector 325 Simulation.ethHost4.tcp.conn-59 sndAck:vector ETV
attr interpolationmode sample-hold
vector 326 Simulation.ethHost3.tcp.conn-58 rcvSeq:vector ETV
attr interpolationmode sample-hold
vector 327 Simulation.ethHost3.tcp.conn-58 rcvAck:vector ETV
attr interpolationmode sample-hold
vector 328 Simulation.ethHost3.tcp.conn-58 sndWnd:vector ETV
attr interpolationmode sample-hold
vector 329 Simulation.ethHost3.tcp.conn-58 sndNxt:vector ETV
attr interpolationmode sample-hold
vector 330 Simulation.ethHost3.tcp.conn-58 unacked:vector ETV
attr interpolationmode sample-hold
vector 331 Simulation.ethHost4.tcp.conn-59 rcvSeq:vector ETV
attr interpolationmode sample-hold
vector 332 Simulation.ethHost4.tcp.conn-59 rcvAck:vector ETV
attr interpolationmode sample-hold
vector 333 Simulation.ethHost4.tcp.conn-59 unacked:vector ETV
attr interpolationmode sample-hold
vector 334 Simulation.ethHost4.tcp.conn-59 cwnd:vector ETV
attr interpolationmode sample-hold
vector 335 Simulation.ethHost4.tcp.conn-59 ssthresh:vector ETV
attr interpolationmode sample-hold
vector 336 Simulation.ethHost4.tcp.conn-59 dupAcks:vector ETV
attr interpolationmode sample-hold
vector 337 Simulation.ethHost3.tcp.conn-58 rtt:vector ETV
attr interpolationmode sample-hold
vector 338 Simulation.ethHost3.tcp.conn-58 srtt:vector ETV
attr interpolationmode sample-hold
vector 339 Simulation.ethHost3.tcp.conn-58 rttvar:vector ETV
attr interpolationmode sample-hold
vector 340 Simulation.ethHost3.tcp.conn-58 rto:vector ETV
attr interpolationmode sample-hold
vector 341 Simulation.ethHost3.tcp.conn-58 cwnd:vector ETV
attr interpolationmode sample-hold
vector 342 Simulation.ethHost3.tcp.conn-58 ssthresh:vector ETV
attr interpolationmode sample-hold
vector 343 Simulation.ethHost3.tcp.conn-58 dupAcks:vector ETV
attr interpolationmode sample-hold
vector 344 Simulation.ethHost2.tcp.conn-60 tcpRcvQueueBytes:vector ETV
attr interpolationmode sample-hold
vector 345 Simulation.ethHost2.tcp.conn-60 rcvAdv:vector ETV
attr interpolationmode sample-hold
vector 346 Simulation.ethHost2.tcp.conn-60 rcvWnd:vector ETV
attr interpolationmode sample-hold
vector 347 Simulation.ethHost2.tcp.conn-60 sndAck:vector ETV
attr interpolationmode sample-hold
vector 348 Simulation.ethHost2.tcp.conn-61 tcpRcvQueueBytes:vector ETV
attr interpolationmode sample-hold
vector 349 Simulation.ethHost2.tcp.conn-61 rcvAdv:vector ETV
attr interpolationmode sample-hold
vector 350 Simulation.ethHost2.tcp.conn-61 rcvWnd:vector ETV
attr interpolationmode sample-hold
vector 351 Simulation.ethHost2.tcp.conn-61 sndAck:vector ETV
attr interpolationmode sample-hold
vector 352 Simulation.ethHost3.tcp.conn-62 rcvAdv:vector ETV
attr interpolationmode sample-hold
vector 353 Simulation.ethHost3.tcp.conn-62 sndWnd:vector ETV
attr interpolationmode sample-hold
vector 354 Simulation.ethHost3.tcp.conn-62 tcpRcvQueueBytes:vector ETV
attr interpolationmode sample-hold
vector 355 Simulation.ethHost3.tcp.conn-62 rcvWnd:vector ETV
attr interpolationmode sample-hold
vector 356 Simulation.ethHost3.tcp.conn-62 sndAck:vector ETV
attr interpolationmode sample-hold
vector 357 Simulation.ethHost1.tcp.conn-63 rcvAdv:vector ETV
attr interpolationmode sample-hold
vector 358 Simulation.ethHost1.tcp.conn-63 sndWnd:vector ETV
attr interpolationmode sample-hold
vector 359 Simulation.ethHost1.tcp.conn-63 tcpRcvQueueBytes:vector ETV
attr interpolationmode sample-hold
vector 360 Simulation.ethHost1.tcp.conn-63 rcvWnd:vector ETV
attr interpolationmode sample-hold
vector 361 Simulation.ethHost1.tcp.conn-63 sndAck:vector ETV
attr interpolationmode sample-hold
vector 362 Simulation.ethHost2.tcp.conn-60 rcvSeq:vector ETV
attr interpolationmode sample-hold
vector 363 Simulation.ethHost2.tcp.conn-60 rcvAck:vector ETV
attr interpolationmode sample-hold
vector 364 Simulation.ethHost2.tcp.conn-60 sndWnd:vector ETV
attr interpolationmode sample-hold
vector 365 Simulation.ethHost2.tcp.conn-60 sndNxt:vector ETV
attr interpolationmode sample-hold
vector 366 Simulation.ethHost2.tcp.conn-60 unacked:vector ETV
attr interpolationmode sample-hold
vector 367 Simulation.ethHost2.tcp.conn-61 rcvSeq:vector ETV
attr interpolationmode sample-hold
vector 368 Simulation.ethHost2.tcp.conn-61 rcvAck:vector ETV
attr interpolationmode sample-hold
vector 369 Simulation.ethHost2.tcp.conn-61 sndWnd:vector ETV
attr interpolationmode sample-hold
vector 370 Simulation.ethHost2.tcp.conn-61 sndNxt:vector ETV
attr interpolationmode sample-hold
vector 371 Simulation.ethHost2.tcp.conn-61 unacked:vector ETV
attr interpolationmode sample-hold
vector 372 Simulation.ethHost3.tcp.conn-62 rcvSeq:vector ETV
attr interpolationmode sample-hold
vector 373 Simulation.ethHost3.tcp.conn-62 rcvAck:vector ETV
attr interpolationmode sample-hold
vector 374 Simulation.ethHost3.tcp.conn-62 unacked:vector ETV
attr interpolationmode sample-hold
vector 375 Simulation.ethHost3.tcp.conn-62 cwnd:vector ETV
attr interpolationmode sample-hold
vector 376 Simulation.ethHost3.tcp.conn-62 ssthresh:vector ETV
attr interpolationmode sample-hold
vector 377 Simulation.ethHost3.tcp.conn-62 dupAcks:vector ETV
attr interpolationmode sample-hold
vector 378 Simulation.ethHost1.tcp.conn-63 rcvSeq:vector ETV
attr interpolationmode sample-hold
vector 379 Simulation.ethHost1.tcp.conn-63 rcvAck:vector ETV
attr interpolationmode sample-hold
vector 380 Simulation.ethHost1.tcp.conn-63 unacked:vector ETV
attr interpolationmode sample-hold
vector 381 Simulation.ethHost1.tcp.conn-63 cwnd:vector ETV
attr interpolationmode sample-hold
vector 382 Simulation.ethHost1.tcp.conn-63 ssthresh:vector ETV
attr interpolationmode sample-hold
vector 383 Simulation.ethHost1.tcp.conn-63 dupAcks:vector ETV
attr interpolationmode sample-hold
vector 384 Simulation.ethHost2.tcp.conn-60 rtt:vector ETV
attr interpolationmode sample-hold
vector 385 Simulation.ethHost2.tcp.conn-60 srtt:vector ETV
attr interpolationmode sample-hold
vector 386 Simulation.ethHost2.tcp.conn-60 rttvar:vector ETV
attr interpolationmode sample-hold
vector 387 Simulation.ethHost2.tcp.conn-60 rto:vector ETV
attr interpolationmode sample-hold
vector 388 Simulation.ethHost2.tcp.conn-60 cwnd:vector ETV
attr interpolationmode sample-hold
vector 389 Simulation.ethHost2.tcp.conn-60 ssthresh:vector ETV
attr interpolationmode sample-hold
vector 390 Simulation.ethHost2.tcp.conn-60 dupAcks:vector ETV
attr interpolationmode sample-hold
vector 391 Simulation.ethHost2.tcp.conn-61 rtt:vector ETV
attr interpolationmode sample-hold
vector 392 Simulation.ethHost2.tcp.conn-61 srtt:vector ETV
attr interpolationmode sample-hold
vector 393 Simulation.ethHost2.tcp.conn-61 rttvar:vector ETV
attr interpolationmode sample-hold
vector 394 Simulation.ethHost2.tcp.conn-61 rto:vector ETV
attr interpolationmode sample-hold
vector 395 Simulation.ethHost2.tcp.conn-61 cwnd:vector ETV
attr interpolationmode sample-hold
vector 396 Simulation.ethHost2.tcp.conn-61 ssthresh:vector ETV
attr interpolationmode sample-hold
vector 397 Simulation.ethHost2.tcp.conn-61 dupAcks:vector ETV
attr interpolationmode sample-hold
0	0	0	0
0	34	0.05001743	1
0	36	0.05002151	0
0	89	0.05006391	1
0	91	0.05007151	0
0	155	0.05010941	1
0	157	0.05011317	0
0	217	0.15010941	1
0	219	0.15011333	0
0	307	0.15014787	1
0	314	0.15015163	0
0	406	0.25014787	1
0	408	0.25015187	0
0	534	0.25018641	1
0	546	0.25019017	0
0	561	0.25019313	1
0	576	0.25019689	0
0	586	0.25019985	1
0	612	0.25020361	0
0	751	0.35018641	1
0	753	0.35019049	0
0	793	0.35022887	1
0	795	0.35024407	0
0	1642	1.50002828	1
0	1653	1.50003236	0
0	1731	1.50007338	1
0	1734	1.50007714	0
1	0	0	0
2	0	0	0
3	0	0	0
3	68	0.0500448	1
3	70	0.05004888	0
3	117	0.05008654	1
3	119	0.0500903	0
3	128	0.05009334	1
3	136	0.05009766	0
3	253	0.150125	1
3	265	0.15012876	0
3	274	0.1501318	1
3	282	0.15013612	0
3	445	0.25016354	1
3	453	0.2501673	0
3	467	0.25017034	1
3	481	0.25017466	0
3	491	0.25017706	1
3	515	0.25018082	0
3	601	0.25020184	1
3	618	0.2502056	0
3	627	0.25020856	1
3	646	0.25021232	0
3	771	0.35020216	1
3	773	0.35020624	0
3	817	0.3502667	1
3	819	0.35027046	0
3	1602	1.50001253	1
3	1612	1.50001661	0
3	1684	1.50005075	1
3	1695	1.50005835	0
4	0	0	0
4	178	0.15008654	1
4	180	0.15009062	0
4	291	0.15014188	1
4	309	0.15014948	0
4	384	0.15018738	1
4	386	0.15019114	0
4	839	0.4502667	1
4	841	0.45027062	0
4	902	0.45030516	1
4	904	0.45030892	0
4	924	0.55030516	1
4	926	0.55030916	0
4	1013	0.5503437	1
4	1024	0.55034746	0
4	1033	0.55035042	1
4	1043	0.55035418	0
4	1053	0.55035714	1
4	1069	0.5503609	0
4	1125	0.6503437	1
4	1127	0.65034778	0
4	1166	0.65038616	1
4	1168	0.65040136	0
4	1591	1.50000581	1
4	1593	1.50000989	0
4	1673	1.50004067	1
4	1675	1.50004827	0
5	0	0	0
6	0	0	0
7	0	0	0
7	228	0.15011391	1
7	230	0.15011799	0
7	346	0.15016451	1
7	348	0.15016827	0
7	357	0.15017131	1
7	365	0.15017563	0
7	864	0.45028229	1
7	866	0.45028605	0
7	875	0.45028909	1
7	883	0.45029341	0
7	957	0.55032083	1
7	959	0.55032459	0
7	968	0.55032763	1
7	976	0.55033195	0
7	985	0.55033435	1
7	1003	0.55033811	0
7	1059	0.55035913	1
7	1075	0.55036289	0
7	1084	0.55036585	1
7	1097	0.55036961	0
7	1145	0.65035945	1
7	1147	0.65036353	0
7	1190	0.65042399	1
7	1192	0.65042775	0
7	1622	1.50002156	1
7	1633	1.50002564	0
7	1705	1.5000633	1
7	1707	1.50006706	0
8	0	0	0
8	451	0.25016451	1
8	458	0.25016859	0
8	639	0.25021099	1
8	657	0.25021859	0
8	722	0.25025649	1
8	724	0.25026025	0
8	1212	0.75042399	1
8	1214	0.75042791	0
8	1275	0.75046245	1
8	1277	0.75046621	0
8	1297	0.85046245	1
8	1299	0.85046645	0
8	1386	0.85050099	1
8	1397	0.85050475	0
8	1406	0.85050771	1
8	1416	0.85051147	0
8	1426	0.85051443	1
8	1442	0.85051819	0
8	1498	0.95050099	1
8	1500	0.95050507	0
8	1539	0.95054345	1
8	1541	0.95055865	0
9	0	0	0
10	0	0	0
11	0	0	0
11	555	0.25019188	1
11	563	0.25019596	0
11	684	0.25023362	1
11	686	0.25023738	0
11	695	0.25024042	1
11	703	0.25024474	0
11	1237	0.75043958	1
11	1239	0.75044334	0
11	1248	0.75044638	1
11	1256	0.7504507	0
11	1330	0.85047812	1
11	1332	0.85048188	0
11	1341	0.85048492	1
11	1349	0.85048924	0
11	1358	0.85049164	1
11	1376	0.8504954	0
11	1432	0.85051642	1
11	1448	0.85052018	0
11	1457	0.85052314	1
11	1470	0.8505269	0
11	1518	0.95051674	1
11	1520	0.95052082	0
11	1563	0.95058128	1
11	1565	0.95058504	0
12	10	0.05	48
12	199	0.1501036	2
12	397	0.25014206	3
12	735	0.3501806	2
12	735	0.3501806	2
12	735	0.3501806	11
12	735	0.3501806	14
12	735	0.3501806	91
12	735	0.3501806	3
12	735	0.3501806	20
17	13	0.05	28
18	14	0.05	28
18	27	0.05001162	44
18	82	0.05005474	88
18	148	0.0501036	40
18	202	0.1501036	42
18	299	0.15014206	40
18	400	0.25014206	43
18	509	0.2501806	40
18	513	0.2501806	40
18	543	0.25018732	40
18	745	0.3501806	44
18	785	0.3502121	183
18	1630	1.50002247	44
18	1719	1.50006757	40
19	15	0.05	46
19	28	0.05001162	62
19	83	0.05005474	106
19	149	0.0501036	58
19	203	0.1501036	60
19	300	0.15014206	58
19	401	0.25014206	61
19	512	0.2501806	58
19	514	0.2501806	58
19	544	0.25018732	58
19	746	0.3501806	62
19	786	0.3502121	201
19	1631	1.50002247	62
19	1720	1.50006757	58
20	15	0.05	64
20	28	0.05001162	64
20	83	0.05005474	106
20	149	0.0501036	64
20	203	0.1501036	64
20	300	0.15014206	64
20	401	0.25014206	64
20	512	0.2501806	64
20	514	0.2501806	64
20	544	0.25018732	64
20	746	0.3501806	64
20	786	0.3502121	201
20	1631	1.50002247	64
20	1720	1.50006757	64
21	15	0.05	1
21	15	0.05	0
21	28	0.05001162	1
21	28	0.05001162	0
21	83	0.05005474	1
21	83	0.05005474	0
21	149	0.0501036	1
21	149	0.0501036	0
21	203	0.1501036	1
21	203	0.1501036	0
21	300	0.15014206	1
21	300	0.15014206	0
21	401	0.25014206	1
21	401	0.25014206	0
21	512	0.2501806	1
21	512	0.2501806	0
21	514	0.2501806	1
21	538	0.25018732	0
21	544	0.25018732	1
21	562	0.25019404	0
21	746	0.3501806	1
21	746	0.3501806	0
21	786	0.3502121	1
21	786	0.3502121	0
21	1631	1.50002247	1
21	1631	1.50002247	0
21	1720	1.50006757	1
21	1720	1.50006757	0
22	15	0.05	64
22	28	0.05001162	64
22	83	0.05005474	106
22	149	0.0501036	64
22	203	0.1501036	64
22	300	0.15014206	64
22	401	0.25014206	64
22	512	0.2501806	64
22	538	0.25018732	64
22	562	0.25019404	64
22	746	0.3501806	64
22	786	0.3502121	201
22	1631	1.50002247	64
22	1720	1.50006757	64
23	15	0.05	0
23	28	0.05001162	0
23	83	0.05005474	0
23	149	0.0501036	0
23	203	0.1501036	0
23	300	0.15014206	0
23	401	0.25014206	0
23	512	0.2501806	0
23	538	0.25018732	6.72e-06
23	562	0.25019404	6.72e-06
23	746	0.3501806	0
23	786	0.3502121	0
23	1631	1.50002247	0
23	1720	1.50006757	0
24	16	0.05000576	64
24	30	0.05001738	64
24	85	0.05006386	106
24	151	0.05010936	64
24	213	0.15010936	64
24	303	0.15014782	64
24	402	0.25014782	64
24	530	0.25018636	64
24	557	0.25019308	64
24	582	0.2501998	64
24	747	0.35018636	64
24	789	0.35022882	201
24	1638	1.50002823	64
24	1727	1.50007333	64
25	17	0.05000581	64
25	31	0.05001743	64
25	86	0.05006391	106
25	152	0.05010941	64
25	214	0.15010941	64
25	304	0.15014787	64
25	403	0.25014787	64
25	531	0.25018641	64
25	558	0.25019313	64
25	583	0.25019985	64
25	748	0.35018641	64
25	790	0.35022887	201
25	1639	1.50002828	64
25	1728	1.50007338	64
26	17	0.05000581	64
26	31	0.05001743	64
26	86	0.05006391	106
26	152	0.05010941	64
26	214	0.15010941	64
26	304	0.15014787	64
26	403	0.25014787	64
26	531	0.25018641	64
26	558	0.25019313	64
26	583	0.25019985	64
26	748	0.35018641	64
26	790	0.35022887	201
26	1639	1.50002828	64
26	1728	1.50007338	64
27	18	0.05000581	46
27	32	0.05001743	46
27	87	0.05006391	88
27	153	0.05010941	46
27	215	0.15010941	46
27	305	0.15014787	46
27	404	0.25014787	46
27	532	0.25018641	46
27	559	0.25019313	46
27	584	0.25019985	46
27	749	0.35018641	46
27	791	0.35022887	183
27	1640	1.50002828	46
27	1729	1.50007338	46
28	19	0.05000581	28
29	20	0.05000581	28
29	73	0.05004893	44
29	122	0.05009035	40
29	139	0.05009771	47
29	268	0.15012881	40
29	285	0.15013617	47
29	456	0.25016735	40
29	484	0.25017471	47
29	518	0.25018087	40
29	621	0.25020565	40
29	650	0.25021237	40
29	776	0.35020629	44
29	822	0.35027051	40
29	1616	1.50001666	44
29	1699	1.5000584	88
30	21	0.05000581	46
30	74	0.05004893	62
30	123	0.05009035	58
30	140	0.05009771	65
30	269	0.15012881	58
30	286	0.15013617	65
30	457	0.25016735	58
30	485	0.25017471	65
30	519	0.25018087	58
30	622	0.25020565	58
30	651	0.25021237	58
30	777	0.35020629	62
30	823	0.35027051	58
30	1617	1.50001666	62
30	1700	1.5000584	106
31	21	0.05000581	64
31	74	0.05004893	64
31	123	0.05009035	64
31	140	0.05009771	65
31	269	0.15012881	64
31	286	0.15013617	65
31	457	0.25016735	64
31	485	0.25017471	65
31	519	0.25018087	64
31	622	0.25020565	64
31	651	0.25021237	64
31	777	0.35020629	64
31	823	0.35027051	64
31	1617	1.50001666	64
31	1700	1.5000584	106
32	21	0.05000581	1
32	21	0.05000581	0
32	74	0.05004893	1
32	74	0.05004893	0
32	123	0.05009035	1
32	123	0.05009035	0
32	140	0.05009771	1
32	140	0.05009771	0
32	269	0.15012881	1
32	269	0.15012881	0
32	286	0.15013617	1
32	286	0.15013617	0
32	457	0.25016735	1
32	457	0.25016735	0
32	485	0.25017471	1
32	485	0.25017471	0
32	519	0.25018087	1
32	521	0.25018151	0
32	622	0.25020565	1
32	622	0.25020565	0
32	651	0.25021237	1
32	651	0.25021237	0
32	777	0.35020629	1
32	777	0.35020629	0
32	823	0.35027051	1
32	823	0.35027051	0
32	1617	1.50001666	1
32	1617	1.50001666	0
32	1700	1.5000584	1
32	1700	1.5000584	0
33	21	0.05000581	64
33	74	0.05004893	64
33	123	0.05009035	64
33	140	0.05009771	65
33	269	0.15012881	64
33	286	0.15013617	65
33	457	0.25016735	64
33	485	0.25017471	65
33	521	0.25018151	64
33	622	0.25020565	64
33	651	0.25021237	64
33	777	0.35020629	64
33	823	0.35027051	64
33	1617	1.50001666	64
33	1700	1.5000584	106
34	21	0.05000581	0
34	74	0.05004893	0
34	123	0.05009035	0
34	140	0.05009771	0
34	269	0.15012881	0
34	286	0.15013617	0
34	457	0.25016735	0
34	485	0.25017471	0
34	521	0.25018151	6.4e-07
34	622	0.25020565	0
34	651	0.25021237	0
34	777	0.35020629	0
34	823	0.35027051	0
34	1617	1.50001666	0
34	1700	1.5000584	0
35	23	0.05001157	64
35	75	0.05005469	64
35	130	0.05009611	64
35	141	0.05010355	65
35	276	0.15013457	64
35	292	0.15014201	65
35	469	0.25017311	64
35	499	0.25018055	65
35	536	0.25018727	64
35	640	0.25021141	64
35	652	0.25021813	64
35	778	0.35021205	64
35	824	0.35027627	64
35	1623	1.50002242	64
35	1712	1.50006752	106
36	24	0.05001162	64
36	76	0.05005474	64
36	131	0.05009616	64
36	142	0.0501036	65
36	277	0.15013462	64
36	293	0.15014206	65
36	470	0.25017316	64
36	500	0.2501806	65
36	537	0.25018732	64
36	641	0.25021146	64
36	653	0.25021818	64
36	779	0.3502121	64
36	825	0.35027632	64
36	1624	1.50002247	64
36	1713	1.50006757	106
37	24	0.05001162	64
37	76	0.05005474	64
37	131	0.05009616	64
37	142	0.0501036	65
37	277	0.15013462	64
37	293	0.15014206	65
37	470	0.25017316	64
37	500	0.2501806	65
37	537	0.25018732	64
37	641	0.25021146	64
37	653	0.25021818	64
37	779	0.3502121	64
37	825	0.35027632	64
37	1624	1.50002247	64
37	1713	1.50006757	106
38	25	0.05001162	46
38	77	0.05005474	46
38	132	0.05009616	46
38	143	0.0501036	47
38	278	0.15013462	46
38	294	0.15014206	47
38	471	0.25017316	46
38	501	0.2501806	47
38	539	0.25018732	46
38	642	0.25021146	46
38	654	0.25021818	46
38	780	0.3502121	46
38	826	0.35027632	46
38	1626	1.50002247	46
38	1714	1.50006757	88
39	34	0.05001743	44
39	89	0.05006391	88
39	155	0.05010941	40
39	217	0.15010941	42
39	307	0.15014787	40
39	406	0.25014787	43
39	534	0.25018641	40
39	561	0.25019313	40
39	586	0.25019985	40
39	751	0.35018641	44
39	793	0.35022887	183
39	1642	1.50002828	44
39	1731	1.50007338	40
40	34	0.05001743	44
40	89	0.05006391	88
40	155	0.05010941	40
40	217	0.15010941	42
40	307	0.15014787	40
40	406	0.25014787	43
40	534	0.25018641	40
40	561	0.25019313	40
40	586	0.25019985	40
40	751	0.35018641	44
40	793	0.35022887	183
40	1642	1.50002828	44
40	1731	1.50007338	40
41	34	0.05001743	1
41	34	0.05001743	0
41	89	0.05006391	1
41	89	0.05006391	0
41	155	0.05010941	1
41	155	0.05010941	0
41	217	0.15010941	1
41	217	0.15010941	0
41	307	0.15014787	1
41	307	0.15014787	0
41	406	0.25014787	1
41	406	0.25014787	0
41	534	0.25018641	1
41	534	0.25018641	0
41	561	0.25019313	1
41	561	0.25019313	0
41	586	0.25019985	1
41	586	0.25019985	0
41	751	0.35018641	1
41	751	0.35018641	0
41	793	0.35022887	1
41	793	0.35022887	0
41	1642	1.50002828	1
41	1642	1.50002828	0
41	1731	1.50007338	1
41	1731	1.50007338	0
42	34	0.05001743	44
42	89	0.05006391	88
42	155	0.05010941	40
42	217	0.15010941	42
42	307	0.15014787	40
42	406	0.25014787	43
42	534	0.25018641	40
42	561	0.25019313	40
42	586	0.25019985	40
42	751	0.35018641	44
42	793	0.35022887	183
42	1642	1.50002828	44
42	1731	1.50007338	40
43	34	0.05001743	0
43	89	0.05006391	0
43	155	0.05010941	0
43	217	0.15010941	0
43	307	0.15014787	0
43	406	0.25014787	0
[...]
150	985	0.55033435	40
150	1059	0.55035913	40
150	1084	0.55036585	40
150	1145	0.65035945	44
150	1190	0.65042399	40
150	1622	1.50002156	44
150	1705	1.5000633	40
151	228	0.15011391	44
151	346	0.15016451	40
151	357	0.15017131	47
151	864	0.45028229	40
151	875	0.45028909	47
151	957	0.55032083	40
151	968	0.55032763	47
151	985	0.55033435	40
151	1059	0.55035913	40
151	1084	0.55036585	40
151	1145	0.65035945	44
151	1190	0.65042399	40
151	1622	1.50002156	44
151	1705	1.5000633	40
152	228	0.15011391	1
152	228	0.15011391	0
152	346	0.15016451	1
152	346	0.15016451	0
152	357	0.15017131	1
152	357	0.15017131	0
152	864	0.45028229	1
152	864	0.45028229	0
152	875	0.45028909	1
152	875	0.45028909	0
152	957	0.55032083	1
152	957	0.55032083	0
152	968	0.55032763	1
152	968	0.55032763	0
152	985	0.55033435	1
152	985	0.55033435	0
152	1059	0.55035913	1
152	1059	0.55035913	0
152	1084	0.55036585	1
152	1084	0.55036585	0
152	1145	0.65035945	1
152	1145	0.65035945	0
152	1190	0.65042399	1
152	1190	0.65042399	0
152	1622	1.50002156	1
152	1622	1.50002156	0
152	1705	1.5000633	1
152	1705	1.5000633	0
153	228	0.15011391	44
153	346	0.15016451	40
153	357	0.15017131	47
153	864	0.45028229	40
153	875	0.45028909	47
153	957	0.55032083	40
153	968	0.55032763	47
153	985	0.55033435	40
153	1059	0.55035913	40
153	1084	0.55036585	40
153	1145	0.65035945	44
153	1190	0.65042399	40
153	1622	1.50002156	44
153	1705	1.5000633	40
154	228	0.15011391	0
154	346	0.15016451	0
154	357	0.15017131	0
154	864	0.45028229	0
154	875	0.45028909	0
154	957	0.55032083	0
154	968	0.55032763	0
154	985	0.55033435	0
154	1059	0.55035913	0
154	1084	0.55036585	0
154	1145	0.65035945	0
154	1190	0.65042399	0
154	1622	1.50002156	0
154	1705	1.5000633	0
155	228	0.15011391	51
155	346	0.15016451	47
155	357	0.15017131	54
155	864	0.45028229	47
155	875	0.45028909	54
155	957	0.55032083	47
155	968	0.55032763	54
155	985	0.55033435	47
155	1059	0.55035913	47
155	1084	0.55036585	47
155	1145	0.65035945	51
155	1190	0.65042399	47
155	1622	1.50002156	51
155	1705	1.5000633	47
156	231	0.15011804	51
156	349	0.15016832	47
156	366	0.15017568	54
156	867	0.4502861	47
156	884	0.45029346	54
156	960	0.55032464	47
156	977	0.550332	54
156	1004	0.55033816	47
156	1076	0.55036294	47
156	1098	0.55036966	47
156	1148	0.65036358	51
156	1193	0.6504278	47
156	1634	1.50002569	51
156	1708	1.50006711	47
157	231	0.15011804	44
157	349	0.15016832	40
157	366	0.15017568	47
157	867	0.4502861	40
157	884	0.45029346	47
157	960	0.55032464	40
157	977	0.550332	47
157	1004	0.55033816	40
157	1076	0.55036294	40
157	1098	0.55036966	40
157	1148	0.65036358	44
157	1193	0.6504278	40
157	1634	1.50002569	44
157	1708	1.50006711	40
169	335	0.1501587	7
169	435	0.2501587	48
169	851	0.45027648	7
169	936	0.55031502	7
169	1203	0.75041818	2
169	1288	0.85045664	3
169	1482	0.95049518	2
169	1482	0.95049518	2
169	1482	0.95049518	11
169	1482	0.95049518	14
169	1482	0.95049518	91
169	1482	0.95049518	3
169	1482	0.95049518	20
170	335	0.1501587	48
170	713	0.25025068	7
170	851	0.45027648	2
170	936	0.55031502	3
170	1183	0.65041818	143
170	1266	0.75045664	7
170	1365	0.85049518	7
186	451	0.25016451	44
186	639	0.25021099	88
186	722	0.25025649	40
186	1212	0.75042399	42
186	1275	0.75046245	40
186	1297	0.85046245	43
186	1386	0.85050099	40
186	1406	0.85050771	40
186	1426	0.85051443	40
186	1498	0.95050099	44
186	1539	0.95054345	183
187	451	0.25016451	44
187	639	0.25021099	88
187	722	0.25025649	40
187	1212	0.75042399	42
187	1275	0.75046245	40
187	1297	0.85046245	43
187	1386	0.85050099	40
187	1406	0.85050771	40
187	1426	0.85051443	40
187	1498	0.95050099	44
187	1539	0.95054345	183
188	451	0.25016451	1
188	451	0.25016451	0
188	639	0.25021099	1
188	639	0.25021099	0
188	722	0.25025649	1
188	722	0.25025649	0
188	1212	0.75042399	1
188	1212	0.75042399	0
188	1275	0.75046245	1
188	1275	0.75046245	0
188	1297	0.85046245	1
188	1297	0.85046245	0
188	1386	0.85050099	1
188	1386	0.85050099	0
188	1406	0.85050771	1
188	1406	0.85050771	0
188	1426	0.85051443	1
188	1426	0.85051443	0
188	1498	0.95050099	1
188	1498	0.95050099	0
188	1539	0.95054345	1
188	1539	0.95054345	0
189	451	0.25016451	44
189	639	0.25021099	88
189	722	0.25025649	40
189	1212	0.75042399	42
189	1275	0.75046245	40
189	1297	0.85046245	43
189	1386	0.85050099	40
189	1406	0.85050771	40
189	1426	0.85051443	40
189	1498	0.95050099	44
189	1539	0.95054345	183
190	451	0.25016451	0
190	639	0.25021099	0
190	722	0.25025649	0
190	1212	0.75042399	0
190	1275	0.75046245	0
190	1297	0.85046245	0
190	1386	0.85050099	0
190	1406	0.85050771	0
190	1426	0.85051443	0
190	1498	0.95050099	0
190	1539	0.95054345	0
191	451	0.25016451	51
191	639	0.25021099	95
191	722	0.25025649	47
191	1212	0.75042399	49
191	1275	0.75046245	47
191	1297	0.85046245	50
191	1386	0.85050099	47
191	1406	0.85050771	47
191	1426	0.85051443	47
191	1498	0.95050099	51
191	1539	0.95054345	190
192	459	0.25016864	51
192	658	0.25021864	95
192	725	0.2502603	47
192	1215	0.75042796	49
192	1278	0.75046626	47
192	1300	0.8504665	50
192	1398	0.8505048	47
192	1417	0.85051152	47
192	1443	0.85051824	47
192	1501	0.95050512	51
192	1542	0.9505587	190
193	459	0.25016864	44
193	658	0.25021864	88
193	725	0.2502603	40
193	1215	0.75042796	42
193	1278	0.75046626	40
193	1300	0.8504665	43
193	1398	0.8505048	40
193	1417	0.85051152	40
193	1443	0.85051824	40
193	1501	0.95050512	44
193	1542	0.9505587	183
194	460	0.25016864	28
195	461	0.25016864	28
195	497	0.25018026	44
195	660	0.25021864	88
195	727	0.2502603	40
195	1217	0.75042796	42
195	1280	0.75046626	40
195	1302	0.8504665	43
195	1400	0.8505048	40
195	1420	0.85051152	40
195	1446	0.85051824	40
195	1503	0.95050512	44
195	1544	0.9505587	183
196	462	0.25016864	46
196	498	0.25018026	62
196	661	0.25021864	106
196	728	0.2502603	58
196	1218	0.75042796	60
196	1281	0.75046626	58
196	1303	0.8504665	61
196	1401	0.8505048	58
196	1421	0.85051152	58
196	1447	0.85051824	58
196	1504	0.95050512	62
196	1545	0.9505587	201
197	462	0.25016864	64
197	498	0.25018026	64
197	661	0.25021864	106
197	728	0.2502603	64
197	1218	0.75042796	64
197	1281	0.75046626	64
197	1303	0.8504665	64
197	1401	0.8505048	64
197	1421	0.85051152	64
197	1447	0.85051824	64
197	1504	0.95050512	64
197	1545	0.9505587	201
198	462	0.25016864	1
198	462	0.25016864	0
198	498	0.25018026	1
198	498	0.25018026	0
198	661	0.25021864	1
198	661	0.25021864	0
198	728	0.2502603	1
198	728	0.2502603	0
198	1218	0.75042796	1
198	1218	0.75042796	0
198	1281	0.75046626	1
198	1281	0.75046626	0
198	1303	0.8504665	1
198	1303	0.8504665	0
198	1401	0.8505048	1
198	1401	0.8505048	0
198	1421	0.85051152	1
198	1421	0.85051152	0
198	1447	0.85051824	1
198	1447	0.85051824	0
198	1504	0.95050512	1
198	1504	0.95050512	0
198	1545	0.9505587	1
198	1545	0.9505587	0
199	462	0.25016864	64
199	498	0.25018026	64
199	661	0.25021864	106
199	728	0.2502603	64
199	1218	0.75042796	64
199	1281	0.75046626	64
199	1303	0.8504665	64
199	1401	0.8505048	64
199	1421	0.85051152	64
199	1447	0.85051824	64
199	1504	0.95050512	64
199	1545	0.9505587	201
200	462	0.25016864	0
200	498	0.25018026	0
200	661	0.25021864	0
200	728	0.2502603	0
200	1218	0.75042796	0
200	1281	0.75046626	0
200	1303	0.8504665	0
200	1401	0.8505048	0
200	1421	0.85051152	0
200	1447	0.85051824	0
200	1504	0.95050512	0
200	1545	0.9505587	0
201	475	0.2501744	64
201	522	0.25018602	64
201	663	0.25022776	106
201	729	0.25026606	64
201	1219	0.75043372	64
201	1282	0.75047202	64
201	1304	0.85047226	64
201	1408	0.85051056	64
201	1433	0.85051728	64
201	1458	0.850524	64
201	1505	0.95051088	64
201	1546	0.95057542	201
202	476	0.25017445	64
202	523	0.25018607	64
202	664	0.25022781	106
202	730	0.25026611	64
202	1220	0.75043377	64
202	1283	0.75047207	64
202	1305	0.85047231	64
202	1409	0.85051061	64
202	1434	0.85051733	64
202	1459	0.85052405	64
202	1506	0.95051093	64
202	1547	0.95057547	201
203	476	0.25017445	64
203	523	0.25018607	64
203	664	0.25022781	106
203	730	0.25026611	64
203	1220	0.75043377	64
203	1283	0.75047207	64
203	1305	0.85047231	64
203	1409	0.85051061	64
203	1434	0.85051733	64
203	1459	0.85052405	64
203	1506	0.95051093	64
203	1547	0.95057547	201
204	477	0.25017445	46
204	524	0.25018607	46
204	665	0.25022781	88
204	731	0.25026611	46
204	1221	0.75043377	46
204	1284	0.75047207	46
204	1306	0.85047231	46
204	1410	0.85051061	46
204	1436	0.85051733	46
204	1461	0.85052405	46
204	1507	0.95051093	46
204	1548	0.95057547	183
205	478	0.25017445	28
206	479	0.25017445	28
206	528	0.25018607	44
206	671	0.25022781	40
206	677	0.25022781	47
206	1227	0.75043377	40
206	1230	0.75043377	47
206	1315	0.85047231	40
206	1321	0.85047231	47
206	1322	0.85047231	40
206	1414	0.85051061	40
206	1440	0.85051733	40
206	1511	0.95051093	44
206	1554	0.95057547	40
207	480	0.25017445	46
207	529	0.25018607	62
207	674	0.25022781	58
207	678	0.25022781	65
207	1229	0.75043377	58
207	1231	0.75043377	65
207	1320	0.85047231	58
207	1323	0.85047231	65
207	1324	0.85047231	58
207	1415	0.85051061	58
207	1441	0.85051733	58
207	1512	0.95051093	62
207	1557	0.95057547	58
208	480	0.25017445	64
208	529	0.25018607	64
208	674	0.25022781	64
208	678	0.25022781	65
208	1229	0.75043377	64
208	1231	0.75043377	65
208	1320	0.85047231	64
208	1323	0.85047231	65
208	1324	0.85047231	64
208	1415	0.85051061	64
208	1441	0.85051733	64
208	1512	0.95051093	64
208	1557	0.95057547	64
209	480	0.25017445	1
209	480	0.25017445	0
209	529	0.25018607	1
209	529	0.25018607	0
209	674	0.25022781	1
209	674	0.25022781	0
209	678	0.25022781	1
209	685	0.25023453	0
209	1229	0.75043377	1
209	1229	0.75043377	0
209	1231	0.75043377	1
209	1238	0.75044049	0
209	1320	0.85047231	1
209	1320	0.85047231	0
209	1323	0.85047231	1
209	1324	0.85047231	2
209	1331	0.85047903	1
209	1342	0.85048583	0
209	1415	0.85051061	1
209	1415	0.85051061	0
209	1441	0.85051733	1
209	1441	0.85051733	0
209	1512	0.95051093	1
209	1512	0.95051093	0
209	1557	0.95057547	1
209	1557	0.95057547	0
210	480	0.25017445	64
210	529	0.25018607	64
210	674	0.25022781	64
210	685	0.25023453	65
210	1229	0.75043377	64
210	1238	0.75044049	65
210	1320	0.85047231	64
210	1331	0.85047903	65
210	1342	0.85048583	64
210	1415	0.85051061	64
210	1441	0.85051733	64
210	1512	0.95051093	64
210	1557	0.95057547	64
211	480	0.25017445	0
211	529	0.25018607	0
211	674	0.25022781	0
211	685	0.25023453	6.72e-06
211	1229	0.75043377	0
211	1238	0.75044049	6.72e-06
211	1320	0.85047231	0
211	1331	0.85047903	6.72e-06
211	1342	0.85048583	1.352e-05
211	1415	0.85051061	0
211	1441	0.85051733	0
211	1512	0.95051093	0
211	1557	0.95057547	0
212	493	0.25018021	64
212	551	0.25019183	64
212	680	0.25023357	64
212	691	0.25024037	65
212	1233	0.75043953	64
212	1244	0.75044633	65
212	1326	0.85047807	64
212	1337	0.85048487	65
212	1354	0.85049159	64
212	1428	0.85051637	64
212	1453	0.85052309	64
212	1514	0.95051669	64
212	1559	0.95058123	64
213	494	0.25018026	64
213	552	0.25019188	64
213	681	0.25023362	64
213	692	0.25024042	65
213	1234	0.75043958	64
213	1245	0.75044638	65
213	1327	0.85047812	64
213	1338	0.85048492	65
213	1355	0.85049164	64
213	1429	0.85051642	64
213	1454	0.85052314	64
213	1515	0.95051674	64
213	1560	0.95058128	64
214	494	0.25018026	64
214	552	0.25019188	64
214	681	0.25023362	64
214	692	0.25024042	65
214	1234	0.75043958	64
214	1245	0.75044638	65
214	1327	0.85047812	64
214	1338	0.85048492	65
214	1355	0.85049164	64
214	1429	0.85051642	64
214	1454	0.85052314	64
214	1515	0.95051674	64
214	1560	0.95058128	64
215	495	0.25018026	46
215	553	0.25019188	46
215	682	0.25023362	46
215	693	0.25024042	47
215	1235	0.75043958	46
215	1246	0.75044638	47
215	1328	0.85047812	46
215	1339	0.85048492	47
215	1356	0.85049164	46
215	1430	0.85051642	46
215	1455	0.85052314	46
215	1516	0.95051674	46
215	1561	0.95058128	46
216	526	0.25018607	62539
216	1412	0.85051061	62593
216	1438	0.85051733	62593
216	1463	0.85052405	62593
217	526	0.25018607	0
217	1412	0.85051061	62568
217	1438	0.85051733	62568
217	1463	0.85052405	0
223	541	0.25018732	12531
223	644	0.25021146	12531
223	656	0.25021818	12531
223	1628	1.50002247	375000
224	541	0.25018732	12553
224	644	0.25021146	0
224	656	0.25021818	0
224	1628	1.50002247	0
225	555	0.25019188	44
225	684	0.25023362	40
225	695	0.25024042	47
225	1237	0.75043958	40
225	1248	0.75044638	47
225	1330	0.85047812	40
225	1341	0.85048492	47
225	1358	0.85049164	40
225	1432	0.85051642	40
225	1457	0.85052314	40
225	1518	0.95051674	44
225	1563	0.95058128	40
226	555	0.25019188	44
226	684	0.25023362	40
226	695	0.25024042	47
226	1237	0.75043958	40
226	1248	0.75044638	47
226	1330	0.85047812	40
226	1341	0.85048492	47
226	1358	0.85049164	40
226	1432	0.85051642	40
226	1457	0.85052314	40
226	1518	0.95051674	44
226	1563	0.95058128	40
227	555	0.25019188	1
227	555	0.25019188	0
227	684	0.25023362	1
227	684	0.25023362	0
227	695	0.25024042	1
227	695	0.25024042	0
227	1237	0.75043958	1
227	1237	0.75043958	0
227	1248	0.75044638	1
227	1248	0.75044638	0
227	1330	0.85047812	1
227	1330	0.85047812	0
227	1341	0.85048492	1
227	1341	0.85048492	0
227	1358	0.85049164	1
227	1358	0.85049164	0
227	1432	0.85051642	1
227	1432	0.85051642	0
227	1457	0.85052314	1
227	1457	0.85052314	0
227	1518	0.95051674	1
227	1518	0.95051674	0
227	1563	0.95058128	1
227	1563	0.95058128	0
228	555	0.25019188	44
228	684	0.25023362	40
228	695	0.25024042	47
228	1237	0.75043958	40
228	1248	0.75044638	47
228	1330	0.85047812	40
228	1341	0.85048492	47
228	1358	0.85049164	40
228	1432	0.85051642	40
228	1457	0.85052314	40
228	1518	0.95051674	44
228	1563	0.95058128	40
229	555	0.25019188	0
229	684	0.25023362	0
229	695	0.25024042	0
229	1237	0.75043958	0
229	1248	0.75044638	0
229	1330	0.85047812	0
229	1341	0.85048492	0
229	1358	0.85049164	0
229	1432	0.85051642	0
229	1457	0.85052314	0
229	1518	0.95051674	0
229	1563	0.95058128	0
230	555	0.25019188	51
230	684	0.25023362	47
230	695	0.25024042	54
230	1237	0.75043958	47
230	1248	0.75044638	54
230	1330	0.85047812	47
230	1341	0.85048492	54
230	1358	0.85049164	47
230	1432	0.85051642	47
230	1457	0.85052314	47
230	1518	0.95051674	51
230	1563	0.95058128	47
231	565	0.25019601	51
231	687	0.25023743	47
231	704	0.25024479	54
231	1240	0.75044339	47
231	1257	0.75045075	54
231	1333	0.85048193	47
231	1350	0.85048929	54
231	1377	0.85049545	47
231	1449	0.85052023	47
231	1471	0.85052695	47
231	1521	0.95052087	51
231	1566	0.95058509	47
232	565	0.25019601	44
232	687	0.25023743	40
232	704	0.25024479	47
232	1240	0.75044339	40
232	1257	0.75045075	47
232	1333	0.85048193	40
232	1350	0.85048929	47
232	1377	0.85049545	40
232	1449	0.85052023	40
232	1471	0.85052695	40
232	1521	0.95052087	44
232	1566	0.95058509	40
244	673	0.25022781	7
244	1224	0.75043377	7
244	1309	0.85047231	7
245	673	0.25022781	48
245	1224	0.75043377	2
245	1309	0.85047231	3
245	1556	0.95057547	143
257	736	0.3501806	0
257	782	0.3502121	0
258	736	0.3501806	7504
258	782	0.3502121	95054
258	782	0.3502121	95054
259	736	0.3501806	7504
259	782	0.3502121	7504
260	736	0.3501806	0
260	782	0.3502121	87550
261	762	0.35019635	87545
262	762	0.35019635	0
263	762	0.35019635	95050
263	762	0.35019635	95050
263	804	0.35026089	95050
264	762	0.35019635	7504
264	804	0.35026089	7504
265	762	0.35019635	0
265	804	0.35026089	0
265	804	0.35026089	143
266	762	0.35019635	7504
266	804	0.35026089	7361
267	762	0.35019635	87546
267	804	0.35026089	87689
268	782	0.3502121	87549
268	828	0.35027632	87550
269	782	0.3502121	87546
269	828	0.35027632	87689
270	782	0.3502121	7504
270	828	0.35027632	7361
271	782	0.3502121	87546
272	782	0.3502121	143
272	828	0.35027632	0
273	804	0.35026089	87546
274	804	0.35026089	87550
275	804	0.35026089	0
276	804	0.35026089	1072
277	804	0.35026089	4294967295
278	804	0.35026089	0
279	828	0.35027632	6.422e-05
280	828	0.35027632	8.0275e-06
281	828	0.35027632	0.6562580275
282	828	0.35027632	2.6250401375
283	828	0.35027632	1072
284	828	0.35027632	4294967295
285	828	0.35027632	0
286	1110	0.65033789	0
286	1156	0.65036939	0
287	1110	0.65033789	7504
287	1156	0.65036939	170093
287	1156	0.65036939	170093
288	1110	0.65033789	7504
288	1156	0.65036939	7504
289	1110	0.65033789	0
289	1156	0.65036939	162589
290	1136	0.65035364	162584
291	1136	0.65035364	0
292	1136	0.65035364	170089
292	1136	0.65035364	170089
292	1177	0.65041818	170089
293	1136	0.65035364	7504
293	1177	0.65041818	7504
294	1136	0.65035364	0
294	1177	0.65041818	0
294	1177	0.65041818	143
295	1136	0.65035364	7504
295	1177	0.65041818	7361
296	1136	0.65035364	162585
296	1177	0.65041818	162728
297	1156	0.65036939	162588
297	1201	0.65043361	162589
298	1156	0.65036939	162585
298	1201	0.65043361	162728
299	1156	0.65036939	7504
299	1201	0.65043361	7361
300	1156	0.65036939	162585
301	1156	0.65036939	143
301	1201	0.65043361	0
302	1177	0.65041818	162585
303	1177	0.65041818	162589
304	1177	0.65041818	0
305	1177	0.65041818	1072
306	1177	0.65041818	4294967295
307	1177	0.65041818	0
308	1201	0.65043361	6.422e-05
309	1201	0.65043361	8.0275e-06
310	1201	0.65043361	0.6562580275
311	1201	0.65043361	2.6250401375
312	1201	0.65043361	1072
313	1201	0.65043361	4294967295
314	1201	0.65043361	0
315	1483	0.95049518	0
315	1529	0.95052668	0
316	1483	0.95049518	7504
316	1529	0.95052668	245132
316	1529	0.95052668	245132
317	1483	0.95049518	7504
317	1529	0.95052668	7504
318	1483	0.95049518	0
318	1529	0.95052668	237628
319	1509	0.95051093	237623
320	1509	0.95051093	0
321	1509	0.95051093	245128
321	1509	0.95051093	245128
321	1550	0.95057547	245128
322	1509	0.95051093	7504
322	1550	0.95057547	7504
323	1509	0.95051093	0
323	1550	0.95057547	0
323	1550	0.95057547	143
324	1509	0.95051093	7504
324	1550	0.95057547	7361
325	1509	0.95051093	237624
325	1550	0.95057547	237767
326	1529	0.95052668	237627
326	1574	0.9505909	237628
327	1529	0.95052668	237624
327	1574	0.9505909	237767
328	1529	0.95052668	7504
328	1574	0.9505909	7361
329	1529	0.95052668	237624
330	1529	0.95052668	143
330	1574	0.9505909	0
331	1550	0.95057547	237624
332	1550	0.95057547	237628
333	1550	0.95057547	0
334	1550	0.95057547	1072
335	1550	0.95057547	4294967295
336	1550	0.95057547	0
337	1574	0.9505909	6.422e-05
338	1574	0.9505909	8.0275e-06
339	1574	0.9505909	0.6562580275
340	1574	0.9505909	2.6250401375
341	1574	0.9505909	1072
342	1574	0.9505909	4294967295
343	1574	0.9505909	0
344	1577	1.5	0
344	1648	1.5000315	0
345	1577	1.5	7504
345	1648	1.5000315	382508
345	1648	1.5000315	382508
346	1577	1.5	7504
346	1648	1.5000315	7504
347	1577	1.5	0
347	1648	1.5000315	375004
348	1579	1.5	0
348	1663	1.50003822	0
349	1579	1.5	7504
349	1663	1.50003822	382510
349	1663	1.50003822	382510
350	1579	1.5	7504
350	1663	1.50003822	7504
351	1579	1.5	0
351	1663	1.50003822	375006
352	1608	1.50001575	382505
352	1608	1.50001575	382505
352	1690	1.50005749	382505
353	1608	1.50001575	7504
353	1690	1.50005749	7504
354	1608	1.50001575	0
354	1690	1.50005749	0
354	1690	1.50005749	48
355	1608	1.50001575	7504
355	1690	1.50005749	7456
356	1608	1.50001575	375001
356	1690	1.50005749	375049
357	1628	1.50002247	382505
357	1628	1.50002247	382505
357	1716	1.50006757	382505
358	1628	1.50002247	7504
358	1716	1.50006757	7504
359	1628	1.50002247	0
359	1716	1.50006757	0
359	1716	1.50006757	48
360	1628	1.50002247	7504
360	1716	1.50006757	7456
361	1628	1.50002247	375001
361	1716	1.50006757	375049
362	1648	1.5000315	375003
362	1726	1.50007292	375004
363	1648	1.5000315	375001
363	1726	1.50007292	375049
364	1648	1.5000315	7504
364	1726	1.50007292	7456
365	1648	1.5000315	375001
366	1648	1.5000315	48
366	1726	1.50007292	0
367	1663	1.50003822	375005
367	1743	1.500083	375006
368	1663	1.50003822	375001
368	1743	1.500083	375049
369	1663	1.50003822	7504
369	1743	1.500083	7456
370	1663	1.50003822	375001
371	1663	1.50003822	48
371	1743	1.500083	0
372	1690	1.50005749	375001
373	1690	1.50005749	375004
374	1690	1.50005749	0
375	1690	1.50005749	1072
376	1690	1.50005749	4294967295
377	1690	1.50005749	0
378	1716	1.50006757	375001
379	1716	1.50006757	375006
380	1716	1.50006757	0
381	1716	1.50006757	1072
382	1716	1.50006757	4294967295
383	1716	1.50006757	0
384	1726	1.50007292	4.142e-05
385	1726	1.50007292	5.1775e-06
386	1726	1.50007292	0.6562551775
387	1726	1.50007292	2.6250258875
388	1726	1.50007292	1072
389	1726	1.50007292	4294967295
390	1726	1.50007292	0
391	1743	1.500083	4.478e-05
392	1743	1.500083	5.5975e-06
393	1743	1.500083	0.6562555975
394	1743	1.500083	2.6250279875
395	1743	1.500083	1072
396	1743	1.500083	4294967295
397	1743	1.500083	0

